*
*
*
*                       LINUX           Thu Apr  9 17:25:47 2026
*
*
*
*  PROGRAM  advgen
*
*  Name           : advgen - Quantus - (64-bit)
*  Version        : 22.1.1-p041
*  Build Date     : Mon Apr 17 07:36:05 PDT 2023
*
*  HSPICE LIBRARY
*
*  OPERATING_TEMPERATURE 25
*  QRC_TECH_DIR /home/ff/eecs251b/sky130/sky130_cds/sky130_release_0.0.4/quantus/extraction/typical 
*
*
*

*
.SUBCKT clb scan_in[0] addr[0] scan_en addr[3] VDD addr[2] VSS q mux x
+ scan_out[0] scan_clk clk addr[1]
*
*
*  caps2d version: 10
*
*
*       TRANSISTOR CARDS
*
*
Mg526/Mmn0	n_12#30	addr[2]#11	VSS#128	VSS
+ nfet_01v8	L=1.5e-07	W=7.6e-07
Mg527/Mmn0	n_2#30	addr[1]#29	VSS#65	VSS	nfet_01v8
+ L=1.5e-07	W=7.6e-07
Mg525__6131/Mmn1	n_8#33	addr[1]#25	VSS#292	VSS
+ nfet_01v8	L=1.5e-07	W=7.6e-07
Mg525__6131/Mmn0	n_8#33	addr[0]#17	VSS#294	VSS
+ nfet_01v8	L=1.5e-07	W=7.6e-07
Mg524__7098/Mmn1	n_7#30	n_2#9	VSS#77	VSS	nfet_01v8
+ L=1.5e-07	W=7.6e-07
Mg524__7098/Mmn0	n_7#30	addr[0]#11	VSS#80	VSS	nfet_01v8
+ L=1.5e-07	W=7.6e-07
Mg523__8246/Mmn0	g523__8246/n0	addr[0]#19	VSS#64	VSS
+ nfet_01v8	L=1.5e-07	W=7.6e-07
Mg523__8246/Mmn1	n_11#17	n_12#9	g523__8246/n0	VSS
+ nfet_01v8	L=1.5e-07	W=7.6e-07
Mg510__3680/Mmn2	g510__3680/net98	n_7#15	VSS#269	VSS
+ nfet_01v8	L=1.5e-07	W=7.6e-07
Mg510__3680/Mmn0	g510__3680/net102	n_8#15	VSS#271	VSS
+ nfet_01v8	L=1.5e-07	W=7.6e-07
Mg510__3680/Mmn3	n_5#11	mem[10]#11	g510__3680/net98	VSS
+ nfet_01v8	L=1.5e-07	W=7.6e-07
Mg510__3680/Mmn1	n_5#11	mem[8]#11	g510__3680/net102	VSS
+ nfet_01v8	L=1.5e-07	W=7.6e-07
Mg509__6783/Mmn2	g509__6783/net98	n_7#13	VSS#376	VSS
+ nfet_01v8	L=1.5e-07	W=7.6e-07
Mg509__6783/Mmn0	g509__6783/net102	n_8#13	VSS#379	VSS
+ nfet_01v8	L=1.5e-07	W=7.6e-07
Mg509__6783/Mmn3	n_6#11	mem[2]#7	g509__6783/net98	VSS
+ nfet_01v8	L=1.5e-07	W=7.6e-07
Mg509__6783/Mmn1	n_6#11	mem[0]#7	g509__6783/net102	VSS
+ nfet_01v8	L=1.5e-07	W=7.6e-07
Mg522__2802/Mmn2	g522__2802/net98	addr[1]#21	VSS#70	VSS
+ nfet_01v8	L=1.5e-07	W=7.6e-07
Mg522__2802/Mmn0	g522__2802/net102	n_2#11	VSS#73	VSS
+ nfet_01v8	L=1.5e-07	W=7.6e-07
Mg522__2802/Mmn3	n_3#9	mem[11]#9	g522__2802/net98	VSS
+ nfet_01v8	L=1.5e-07	W=7.6e-07
Mg522__2802/Mmn1	n_3#9	mem[9]#9	g522__2802/net102	VSS
+ nfet_01v8	L=1.5e-07	W=7.6e-07
Mg521__1617/Mmn2	g521__1617/net98	addr[1]#17	VSS#78	VSS
+ nfet_01v8	L=1.5e-07	W=7.6e-07
Mg521__1617/Mmn0	g521__1617/net102	n_2#7	VSS#83	VSS
+ nfet_01v8	L=1.5e-07	W=7.6e-07
Mg521__1617/Mmn3	n_4#8	mem[3]#11	g521__1617/net98	VSS
+ nfet_01v8	L=1.5e-07	W=7.6e-07
Mg521__1617/Mmn1	n_4#8	mem[1]#11	g521__1617/net102	VSS
+ nfet_01v8	L=1.5e-07	W=7.6e-07
Mg497__8428/Mmn5	n_10#13	mem[6]#11	g497__8428/net155
+ VSS	nfet_01v8	L=1.5e-07	W=7.6e-07
Mg497__8428/Mmn4	g497__8428/net155	n_7#11	VSS#68	VSS
+ nfet_01v8	L=1.5e-07	W=7.6e-07
Mg497__8428/Mmn2	g497__8428/net147	addr[0]#15	VSS#69	VSS
+ nfet_01v8	L=1.5e-07	W=7.6e-07
Mg497__8428/Mmn3	n_10#8	n_0#3	g497__8428/net147	VSS
+ nfet_01v8	L=1.5e-07	W=7.6e-07
Mg497__8428/Mmn0	g497__8428/net139	n_8#11	VSS#74	VSS
+ nfet_01v8	L=1.5e-07	W=7.6e-07
Mg497__8428/Mmn1	n_10#8	mem[4]#11	g497__8428/net139	VSS
+ nfet_01v8	L=1.5e-07	W=7.6e-07
Mg498__5526/Mmn5	n_9#13	mem[14]#11	g498__5526/net155	VSS
+ nfet_01v8	L=1.5e-07	W=7.6e-07
Mg498__5526/Mmn4	g498__5526/net155	n_7#9	VSS#296	VSS
+ nfet_01v8	L=1.5e-07	W=7.6e-07
Mg498__5526/Mmn2	g498__5526/net147	addr[0]#13	VSS#298
+ VSS	nfet_01v8	L=1.5e-07	W=7.6e-07
Mg498__5526/Mmn3	n_9#8	n_1#3	g498__5526/net147	VSS
+ nfet_01v8	L=1.5e-07	W=7.6e-07
Mg498__5526/Mmn0	g498__5526/net139	n_8#9	VSS#300	VSS
+ nfet_01v8	L=1.5e-07	W=7.6e-07
Mg498__5526/Mmn1	n_9#8	mem[12]#11	g498__5526/net139	VSS
+ nfet_01v8	L=1.5e-07	W=7.6e-07
Mg495__6260/Mmn5	n_14#13	n_3#3	g495__6260/n0#3	VSS
+ nfet_01v8	L=1.5e-07	W=7.6e-07
Mg495__6260/Mmn3	g495__6260/n0#3	n_9#3	g495__6260/n1#4
+ VSS	nfet_01v8	L=1.5e-07	W=7.6e-07
Mg495__6260/Mmn4	n_14#13	n_11#7	g495__6260/n0#5	VSS
+ nfet_01v8	L=1.5e-07	W=7.6e-07
Mg495__6260/Mmn0	g495__6260/n1#2	addr[2]#9	VSS#61	VSS
+ nfet_01v8	L=1.5e-07	W=7.6e-07
Mg495__6260/Mmn2	g495__6260/n0	n_12#11	g495__6260/n1#4
+ VSS	nfet_01v8	L=1.5e-07	W=7.6e-07
Mg495__6260/Mmn1	g495__6260/n1#2	n_5#3	VSS#60	VSS
+ nfet_01v8	L=1.5e-07	W=7.6e-07
Mg496__4319/Mmn5	n_13#13	n_4#3	g496__4319/n0#3	VSS
+ nfet_01v8	L=1.5e-07	W=7.6e-07
Mg496__4319/Mmn3	g496__4319/n0#3	n_10#3	g496__4319/n1#4
+ VSS	nfet_01v8	L=1.5e-07	W=7.6e-07
Mg496__4319/Mmn4	n_13#13	n_11#5	g496__4319/n0#5	VSS
+ nfet_01v8	L=1.5e-07	W=7.6e-07
Mg496__4319/Mmn0	g496__4319/n1#2	addr[2]#7	VSS#291
+ VSS	nfet_01v8	L=1.5e-07	W=7.6e-07
Mg496__4319/Mmn2	g496__4319/n0	n_12#7	g496__4319/n1#4	VSS
+ nfet_01v8	L=1.5e-07	W=7.6e-07
Mg496__4319/Mmn1	g496__4319/n1#2	n_6#3	VSS#289	VSS
+ nfet_01v8	L=1.5e-07	W=7.6e-07
Mg494__5107/Mmn2	g494__5107/n0#11	g494__5107/S0b#3
+ g494__5107/n3	VSS	nfet_01v8	L=1.5e-07	W=4.25e-07
Mg494__5107/Mmn1	g494__5107/n3	n_13#3	VSS#272	VSS
+ nfet_01v8	L=1.5e-07	W=4.25e-07
Mg494__5107/Mmn4	g494__5107/n0#11	addr[3]#7	g494__5107/n5
+ VSS	nfet_01v8	L=1.5e-07	W=4.25e-07
Mg494__5107/Mmn3	g494__5107/n5	n_14#3	VSS#270	VSS
+ nfet_01v8	L=1.5e-07	W=4.25e-07
Mg494__5107/Mmn5	n_15#21	g494__5107/n0#3	VSS#270
+ VSS	nfet_01v8	L=1.5e-07	W=7.6e-07
Mg494__5107/Mmn0	g494__5107/S0b#11	addr[3]#5	VSS#272
+ VSS	nfet_01v8	L=1.5e-07	W=4.25e-07
Mg519__1705/Mmn2	g519__1705/n0#9	g519__1705/S0b#3
+ g519__1705/n3	VSS	nfet_01v8	L=1.5e-07	W=4.25e-07
Mg519__1705/Mmn1	g519__1705/n3	mem[13]#9	VSS#383	VSS
+ nfet_01v8	L=1.5e-07	W=4.25e-07
Mg519__1705/Mmn4	g519__1705/n0#9	addr[1]#31	g519__1705/n5
+ VSS	nfet_01v8	L=1.5e-07	W=4.25e-07
Mg519__1705/Mmn3	g519__1705/n5	mem[15]#9	VSS#381	VSS
+ nfet_01v8	L=1.5e-07	W=4.25e-07
Mg519__1705/Mmn5	n_1#11	g519__1705/n0#3	VSS#381	VSS
+ nfet_01v8	L=1.5e-07	W=7.6e-07
Mg519__1705/Mmn0	g519__1705/S0b#9	addr[1]#27	VSS#383
+ VSS	nfet_01v8	L=1.5e-07	W=4.25e-07
Mg520__5122/Mmn2	g520__5122/n0#9	g520__5122/S0b#3
+ g520__5122/n3	VSS	nfet_01v8	L=1.5e-07	W=4.25e-07
Mg520__5122/Mmn1	g520__5122/n3	mem[5]#11	VSS#387	VSS
+ nfet_01v8	L=1.5e-07	W=4.25e-07
Mg520__5122/Mmn4	g520__5122/n0#9	addr[1]#23	g520__5122/n5
+ VSS	nfet_01v8	L=1.5e-07	W=4.25e-07
Mg520__5122/Mmn3	g520__5122/n5	mem[7]#9	VSS#385	VSS
+ nfet_01v8	L=1.5e-07	W=4.25e-07
Mg520__5122/Mmn5	n_0#11	g520__5122/n0#3	VSS#385	VSS
+ nfet_01v8	L=1.5e-07	W=7.6e-07
Mg520__5122/Mmn0	g520__5122/S0b#9	addr[1]#19	VSS#387
+ VSS	nfet_01v8	L=1.5e-07	W=4.25e-07
Mg493__2398/Mmn2	g493__2398/n0#31	g493__2398/S0b#3
+ g493__2398/n3	VSS	nfet_01v8	L=1.5e-07	W=6e-07
Mg493__2398/Mmn5	mux#2	g493__2398/n0#9	VSS#127	VSS
+ nfet_01v8	L=1.5e-07	W=7.6e-07
Mg493__2398/Mmn5@1	mux#2	g493__2398/n0#11	VSS#126	VSS
+ nfet_01v8	L=1.5e-07	W=7.6e-07
Mg493__2398/Mmn5@2	mux#6	g493__2398/n0#13	VSS#126	VSS
+ nfet_01v8	L=1.5e-07	W=7.6e-07
Mg493__2398/Mmn5@3	mux#6	g493__2398/n0#15	VSS#108	VSS
+ nfet_01v8	L=1.5e-07	W=7.6e-07
Mg493__2398/Mmn4	g493__2398/n0#31	FE_OFN1_scan_out_0#27
+ g493__2398/n5	VSS	nfet_01v8	L=1.5e-07	W=6e-07
Mg493__2398/Mmn1	g493__2398/n3	n_15#7	VSS#129	VSS
+ nfet_01v8	L=1.5e-07	W=6e-07
Mg493__2398/Mmn3	g493__2398/n5	x#7	VSS#127	VSS
+ nfet_01v8	L=1.5e-07	W=6e-07
Mg493__2398/Mmn0	g493__2398/S0b#9	FE_OFN1_scan_out_0#25	VSS#129
+ VSS	nfet_01v8	L=1.5e-07	W=4.25e-07
M\mem_reg[10]/Mmn50	\mem_reg[10]/net436	\mem_reg[10]/qbint#7	VSS#45
+ VSS	nfet_01v8	L=1.5e-07	W=4.25e-07
M\mem_reg[10]/Mmn12	\mem_reg[10]/Db#4	\mem_reg[10]/SEb#3
+ \mem_reg[10]/net449	VSS	nfet_01v8	L=1.5e-07	W=4.25e-07
M\mem_reg[10]/Mmn11	\mem_reg[10]/net449	mem[10]#9	VSS#56	VSS
+ nfet_01v8	L=1.5e-07	W=4.25e-07
M\mem_reg[10]/Mmn51	\mem_reg[10]/n30#11	\mem_reg[10]/CKb#11
+ \mem_reg[10]/net436	VSS	nfet_01v8	L=1.5e-07	W=4.25e-07
M\mem_reg[10]/Mmn36	\mem_reg[10]/n20#11	\mem_reg[10]/CKbb#5
+ \mem_reg[10]/net429	VSS	nfet_01v8	L=1.5e-07	W=4.25e-07
M\mem_reg[10]/Mmn25	\mem_reg[10]/n20#11	\mem_reg[10]/CKb#7
+ \mem_reg[10]/Db#8	VSS	nfet_01v8	L=1.5e-07	W=4.25e-07
M\mem_reg[10]/Mmn35	\mem_reg[10]/net429	\mem_reg[10]/mout#3	VSS#50
+ VSS	nfet_01v8	L=1.5e-07	W=4.25e-07
M\mem_reg[10]/Mmn13	\mem_reg[10]/net461	mem[8]#9	VSS#54	VSS
+ nfet_01v8	L=1.5e-07	W=4.25e-07
M\mem_reg[10]/Mmn14	\mem_reg[10]/Db#4	scan_en#143
+ \mem_reg[10]/net461	VSS	nfet_01v8	L=1.5e-07	W=4.25e-07
M\mem_reg[10]/Mmn40	\mem_reg[10]/n30#11	\mem_reg[10]/CKbb#7
+ \mem_reg[10]/mout#11	VSS	nfet_01v8	L=1.5e-07	W=4.25e-07
M\mem_reg[10]/Mmn30	\mem_reg[10]/mout#11	\mem_reg[10]/n20#3	VSS#48
+ VSS	nfet_01v8	L=1.5e-07	W=4.25e-07
M\mem_reg[10]/Mmn56	\mem_reg[10]/net367#11	\mem_reg[10]/qbint#9	VSS#43
+ VSS	nfet_01v8	L=1.5e-07	W=4.25e-07
M\mem_reg[10]/Mmn21	\mem_reg[10]/CKbb#20	\mem_reg[10]/CKb#9	VSS#50
+ VSS	nfet_01v8	L=1.5e-07	W=4.25e-07
M\mem_reg[10]/Mmn20	\mem_reg[10]/CKb#25	scan_clk#71	VSS#54	VSS
+ nfet_01v8	L=1.5e-07	W=4.25e-07
M\mem_reg[10]/Mmn57	UNCONNECTED15#4	\mem_reg[10]/net367#3	VSS#40
+ VSS	nfet_01v8	L=1.5e-07	W=7.6e-07
M\mem_reg[10]/Mmn45	\mem_reg[10]/qbint#29	\mem_reg[10]/n30#3	VSS#43
+ VSS	nfet_01v8	L=1.5e-07	W=4.25e-07
M\mem_reg[10]/Mmn10	\mem_reg[10]/SEb#12	scan_en#141	VSS#56	VSS
+ nfet_01v8	L=1.5e-07	W=4.25e-07
M\mem_reg[10]/Mmn55	mem[10]#31	\mem_reg[10]/qbint#11	VSS#40	VSS
+ nfet_01v8	L=1.5e-07	W=7.6e-07
M\mem_reg[0]/Mmn50	\mem_reg[0]/net436	\mem_reg[0]/qbint#7	VSS#367
+ VSS	nfet_01v8	L=1.5e-07	W=4.25e-07
M\mem_reg[0]/Mmn12	\mem_reg[0]/Db#4	\mem_reg[0]/SEb#3
+ \mem_reg[0]/net449	VSS	nfet_01v8	L=1.5e-07	W=4.25e-07
M\mem_reg[0]/Mmn11	\mem_reg[0]/net449	mem[0]#9	VSS#375
+ VSS	nfet_01v8	L=1.5e-07	W=4.25e-07
M\mem_reg[0]/Mmn51	\mem_reg[0]/n30#11	\mem_reg[0]/CKb#11
+ \mem_reg[0]/net436	VSS	nfet_01v8	L=1.5e-07	W=4.25e-07
M\mem_reg[0]/Mmn36	\mem_reg[0]/n20#11	\mem_reg[0]/CKbb#5
+ \mem_reg[0]/net429	VSS	nfet_01v8	L=1.5e-07	W=4.25e-07
M\mem_reg[0]/Mmn25	\mem_reg[0]/n20#11	\mem_reg[0]/CKb#7
+ \mem_reg[0]/Db#8	VSS	nfet_01v8	L=1.5e-07	W=4.25e-07
M\mem_reg[0]/Mmn35	\mem_reg[0]/net429	\mem_reg[0]/mout#3	VSS#371
+ VSS	nfet_01v8	L=1.5e-07	W=4.25e-07
M\mem_reg[0]/Mmn13	\mem_reg[0]/net461	mem[13]#11	VSS#373
+ VSS	nfet_01v8	L=1.5e-07	W=4.25e-07
M\mem_reg[0]/Mmn14	\mem_reg[0]/Db#4	scan_en#137
+ \mem_reg[0]/net461	VSS	nfet_01v8	L=1.5e-07	W=4.25e-07
M\mem_reg[0]/Mmn40	\mem_reg[0]/n30#11	\mem_reg[0]/CKbb#7
+ \mem_reg[0]/mout#11	VSS	nfet_01v8	L=1.5e-07	W=4.25e-07
M\mem_reg[0]/Mmn30	\mem_reg[0]/mout#11	\mem_reg[0]/n20#3	VSS#369
+ VSS	nfet_01v8	L=1.5e-07	W=4.25e-07
M\mem_reg[0]/Mmn56	\mem_reg[0]/net367#11	\mem_reg[0]/qbint#9	VSS#365
+ VSS	nfet_01v8	L=1.5e-07	W=4.25e-07
M\mem_reg[0]/Mmn21	\mem_reg[0]/CKbb#20	\mem_reg[0]/CKb#9	VSS#371
+ VSS	nfet_01v8	L=1.5e-07	W=4.25e-07
M\mem_reg[0]/Mmn20	\mem_reg[0]/CKb#25	scan_clk#67	VSS#373
+ VSS	nfet_01v8	L=1.5e-07	W=4.25e-07
M\mem_reg[0]/Mmn57	UNCONNECTED9#4	\mem_reg[0]/net367#3	VSS#363
+ VSS	nfet_01v8	L=1.5e-07	W=7.6e-07
M\mem_reg[0]/Mmn45	\mem_reg[0]/qbint#29	\mem_reg[0]/n30#3	VSS#365
+ VSS	nfet_01v8	L=1.5e-07	W=4.25e-07
M\mem_reg[0]/Mmn10	\mem_reg[0]/SEb#12	scan_en#133	VSS#375
+ VSS	nfet_01v8	L=1.5e-07	W=4.25e-07
M\mem_reg[0]/Mmn55	mem[0]#31	\mem_reg[0]/qbint#11	VSS#363
+ VSS	nfet_01v8	L=1.5e-07	W=7.6e-07
M\mem_reg[2]/Mmn50	\mem_reg[2]/net436	\mem_reg[2]/qbint#7	VSS#366
+ VSS	nfet_01v8	L=1.5e-07	W=4.25e-07
M\mem_reg[2]/Mmn12	\mem_reg[2]/Db	\mem_reg[2]/SEb#3
+ \mem_reg[2]/net449	VSS	nfet_01v8	L=1.5e-07	W=4.25e-07
M\mem_reg[2]/Mmn11	\mem_reg[2]/net449	mem[2]#11	VSS#374
+ VSS	nfet_01v8	L=1.5e-07	W=4.25e-07
M\mem_reg[2]/Mmn51	\mem_reg[2]/n30#8	\mem_reg[2]/CKb#11
+ \mem_reg[2]/net436	VSS	nfet_01v8	L=1.5e-07	W=4.25e-07
M\mem_reg[2]/Mmn36	\mem_reg[2]/n20#8	\mem_reg[2]/CKbb#5
+ \mem_reg[2]/net429	VSS	nfet_01v8	L=1.5e-07	W=4.25e-07
M\mem_reg[2]/Mmn25	\mem_reg[2]/n20#8	\mem_reg[2]/CKb#7
+ \mem_reg[2]/Db#5	VSS	nfet_01v8	L=1.5e-07	W=4.25e-07
M\mem_reg[2]/Mmn35	\mem_reg[2]/net429	\mem_reg[2]/mout#3	VSS#370
+ VSS	nfet_01v8	L=1.5e-07	W=4.25e-07
M\mem_reg[2]/Mmn13	\mem_reg[2]/net461	mem[0]#11	VSS#372
+ VSS	nfet_01v8	L=1.5e-07	W=4.25e-07
M\mem_reg[2]/Mmn14	\mem_reg[2]/Db	scan_en#139	\mem_reg[2]/net461
+ VSS	nfet_01v8	L=1.5e-07	W=4.25e-07
M\mem_reg[2]/Mmn40	\mem_reg[2]/n30#8	\mem_reg[2]/CKbb#7
+ \mem_reg[2]/mout#8	VSS	nfet_01v8	L=1.5e-07	W=4.25e-07
M\mem_reg[2]/Mmn30	\mem_reg[2]/mout#8	\mem_reg[2]/n20#3	VSS#368
+ VSS	nfet_01v8	L=1.5e-07	W=4.25e-07
M\mem_reg[2]/Mmn56	\mem_reg[2]/net367#8	\mem_reg[2]/qbint#9	VSS#364
+ VSS	nfet_01v8	L=1.5e-07	W=4.25e-07
M\mem_reg[2]/Mmn21	\mem_reg[2]/CKbb#17	\mem_reg[2]/CKb#9	VSS#370
+ VSS	nfet_01v8	L=1.5e-07	W=4.25e-07
M\mem_reg[2]/Mmn20	\mem_reg[2]/CKb#22	scan_clk#69	VSS#372
+ VSS	nfet_01v8	L=1.5e-07	W=4.25e-07
M\mem_reg[2]/Mmn57	UNCONNECTED1	\mem_reg[2]/net367#3	VSS#362
+ VSS	nfet_01v8	L=1.5e-07	W=7.6e-07
M\mem_reg[2]/Mmn45	\mem_reg[2]/qbint#29	\mem_reg[2]/n30#3	VSS#364
+ VSS	nfet_01v8	L=1.5e-07	W=4.25e-07
M\mem_reg[2]/Mmn10	\mem_reg[2]/SEb#9	scan_en#135	VSS#374
+ VSS	nfet_01v8	L=1.5e-07	W=4.25e-07
M\mem_reg[2]/Mmn55	mem[2]#28	\mem_reg[2]/qbint#11	VSS#362
+ VSS	nfet_01v8	L=1.5e-07	W=7.6e-07
M\mem_reg[15]/Mmn50	\mem_reg[15]/net436	\mem_reg[15]/qbint#7	VSS#277
+ VSS	nfet_01v8	L=1.5e-07	W=4.25e-07
M\mem_reg[15]/Mmn12	\mem_reg[15]/Db	\mem_reg[15]/SEb#3
+ \mem_reg[15]/net449	VSS	nfet_01v8	L=1.5e-07	W=4.25e-07
M\mem_reg[15]/Mmn11	\mem_reg[15]/net449	mem[15]#11	VSS#285
+ VSS	nfet_01v8	L=1.5e-07	W=4.25e-07
M\mem_reg[15]/Mmn51	\mem_reg[15]/n30#8	\mem_reg[15]/CKb#11
+ \mem_reg[15]/net436	VSS	nfet_01v8	L=1.5e-07	W=4.25e-07
M\mem_reg[15]/Mmn36	\mem_reg[15]/n20#8	\mem_reg[15]/CKbb#5
+ \mem_reg[15]/net429	VSS	nfet_01v8	L=1.5e-07	W=4.25e-07
M\mem_reg[15]/Mmn25	\mem_reg[15]/n20#8	\mem_reg[15]/CKb#7
+ \mem_reg[15]/Db#5	VSS	nfet_01v8	L=1.5e-07	W=4.25e-07
M\mem_reg[15]/Mmn35	\mem_reg[15]/net429	\mem_reg[15]/mout#3	VSS#281
+ VSS	nfet_01v8	L=1.5e-07	W=4.25e-07
M\mem_reg[15]/Mmn13	\mem_reg[15]/net461	mem[7]#11	VSS#283
+ VSS	nfet_01v8	L=1.5e-07	W=4.25e-07
M\mem_reg[15]/Mmn14	\mem_reg[15]/Db	scan_en#129
+ \mem_reg[15]/net461	VSS	nfet_01v8	L=1.5e-07	W=4.25e-07
M\mem_reg[15]/Mmn40	\mem_reg[15]/n30#8	\mem_reg[15]/CKbb#7
+ \mem_reg[15]/mout#8	VSS	nfet_01v8	L=1.5e-07	W=4.25e-07
M\mem_reg[15]/Mmn30	\mem_reg[15]/mout#8	\mem_reg[15]/n20#3	VSS#279
+ VSS	nfet_01v8	L=1.5e-07	W=4.25e-07
M\mem_reg[15]/Mmn56	\mem_reg[15]/net367#8	\mem_reg[15]/qbint#9	VSS#275
+ VSS	nfet_01v8	L=1.5e-07	W=4.25e-07
M\mem_reg[15]/Mmn21	\mem_reg[15]/CKbb#17	\mem_reg[15]/CKb#9	VSS#281
+ VSS	nfet_01v8	L=1.5e-07	W=4.25e-07
M\mem_reg[15]/Mmn20	\mem_reg[15]/CKb#22	scan_clk#63	VSS#283
+ VSS	nfet_01v8	L=1.5e-07	W=4.25e-07
M\mem_reg[15]/Mmn57	UNCONNECTED7	\mem_reg[15]/net367#3	VSS#273
+ VSS	nfet_01v8	L=1.5e-07	W=7.6e-07
M\mem_reg[15]/Mmn45	\mem_reg[15]/qbint#29	\mem_reg[15]/n30#3	VSS#275
+ VSS	nfet_01v8	L=1.5e-07	W=4.25e-07
M\mem_reg[15]/Mmn10	\mem_reg[15]/SEb#9	scan_en#123	VSS#285
+ VSS	nfet_01v8	L=1.5e-07	W=4.25e-07
M\mem_reg[15]/Mmn55	mem[15]#28	\mem_reg[15]/qbint#11	VSS#273
+ VSS	nfet_01v8	L=1.5e-07	W=7.6e-07
mux_control_reg/Mmn50	mux_control_reg/net436	mux_control_reg/qbint#7
+ VSS#133	VSS	nfet_01v8	L=1.5e-07	W=4.25e-07
mux_control_reg/Mmn12	mux_control_reg/Db#4	mux_control_reg/SEb#3
+ mux_control_reg/net449	VSS	nfet_01v8	L=1.5e-07
+ W=4.25e-07
mux_control_reg/Mmn11	mux_control_reg/net449	FE_OFN1_scan_out_0#23	VSS#147
+ VSS	nfet_01v8	L=1.5e-07	W=4.25e-07
mux_control_reg/Mmn51	mux_control_reg/n30#11	mux_control_reg/CKb#11
+ mux_control_reg/net436	VSS	nfet_01v8	L=1.5e-07
+ W=4.25e-07
mux_control_reg/Mmn36	mux_control_reg/n20#11	mux_control_reg/CKbb#5
+ mux_control_reg/net429	VSS	nfet_01v8	L=1.5e-07
+ W=4.25e-07
mux_control_reg/Mmn25	mux_control_reg/n20#11	mux_control_reg/CKb#7
+ mux_control_reg/Db#8	VSS	nfet_01v8	L=1.5e-07	W=4.25e-07
mux_control_reg/Mmn35	mux_control_reg/net429	mux_control_reg/mout#3	VSS#137
+ VSS	nfet_01v8	L=1.5e-07	W=4.25e-07
mux_control_reg/Mmn13	mux_control_reg/net461	mem[11]#11	VSS#143
+ VSS	nfet_01v8	L=1.5e-07	W=4.25e-07
mux_control_reg/Mmn14	mux_control_reg/Db#4	scan_en#131
+ mux_control_reg/net461	VSS	nfet_01v8	L=1.5e-07
+ W=4.25e-07
mux_control_reg/Mmn40	mux_control_reg/n30#11	mux_control_reg/CKbb#7
+ mux_control_reg/mout#11	VSS	nfet_01v8	L=1.5e-07
+ W=4.25e-07
mux_control_reg/Mmn30	mux_control_reg/mout#11	mux_control_reg/n20#3
+ VSS#136	VSS	nfet_01v8	L=1.5e-07	W=4.25e-07
mux_control_reg/Mmn56	mux_control_reg/net367#11	mux_control_reg/qbint#9
+ VSS#132	VSS	nfet_01v8	L=1.5e-07	W=4.25e-07
mux_control_reg/Mmn21	mux_control_reg/CKbb#20	mux_control_reg/CKb#9
+ VSS#137	VSS	nfet_01v8	L=1.5e-07	W=4.25e-07
mux_control_reg/Mmn20	mux_control_reg/CKb#25	scan_clk#65	VSS#143
+ VSS	nfet_01v8	L=1.5e-07	W=4.25e-07
mux_control_reg/Mmn57	UNCONNECTED2#4	mux_control_reg/net367#3	VSS#130
+ VSS	nfet_01v8	L=1.5e-07	W=7.6e-07
mux_control_reg/Mmn45	mux_control_reg/qbint#29	mux_control_reg/n30#3
+ VSS#132	VSS	nfet_01v8	L=1.5e-07	W=4.25e-07
mux_control_reg/Mmn10	mux_control_reg/SEb#12	scan_en#125	VSS#147
+ VSS	nfet_01v8	L=1.5e-07	W=4.25e-07
mux_control_reg/Mmn55	FE_OFN1_scan_out_0#58	mux_control_reg/qbint#11
+ VSS#130	VSS	nfet_01v8	L=1.5e-07	W=7.6e-07
M\mem_reg[8]/Mmn50	\mem_reg[8]/net436	\mem_reg[8]/qbint#7	VSS#278
+ VSS	nfet_01v8	L=1.5e-07	W=4.25e-07
M\mem_reg[8]/Mmn12	\mem_reg[8]/Db#4	\mem_reg[8]/SEb#3
+ \mem_reg[8]/net449	VSS	nfet_01v8	L=1.5e-07	W=4.25e-07
M\mem_reg[8]/Mmn11	\mem_reg[8]/net449	mem[8]#7	VSS#286
+ VSS	nfet_01v8	L=1.5e-07	W=4.25e-07
M\mem_reg[8]/Mmn51	\mem_reg[8]/n30#11	\mem_reg[8]/CKb#11
+ \mem_reg[8]/net436	VSS	nfet_01v8	L=1.5e-07	W=4.25e-07
M\mem_reg[8]/Mmn36	\mem_reg[8]/n20#11	\mem_reg[8]/CKbb#5
+ \mem_reg[8]/net429	VSS	nfet_01v8	L=1.5e-07	W=4.25e-07
M\mem_reg[8]/Mmn25	\mem_reg[8]/n20#11	\mem_reg[8]/CKb#7
+ \mem_reg[8]/Db#8	VSS	nfet_01v8	L=1.5e-07	W=4.25e-07
M\mem_reg[8]/Mmn35	\mem_reg[8]/net429	\mem_reg[8]/mout#3	VSS#282
+ VSS	nfet_01v8	L=1.5e-07	W=4.25e-07
M\mem_reg[8]/Mmn13	\mem_reg[8]/net461	mem[2]#9	VSS#284
+ VSS	nfet_01v8	L=1.5e-07	W=4.25e-07
M\mem_reg[8]/Mmn14	\mem_reg[8]/Db#4	scan_en#127
+ \mem_reg[8]/net461	VSS	nfet_01v8	L=1.5e-07	W=4.25e-07
M\mem_reg[8]/Mmn40	\mem_reg[8]/n30#11	\mem_reg[8]/CKbb#7
+ \mem_reg[8]/mout#11	VSS	nfet_01v8	L=1.5e-07	W=4.25e-07
M\mem_reg[8]/Mmn30	\mem_reg[8]/mout#11	\mem_reg[8]/n20#3	VSS#280
+ VSS	nfet_01v8	L=1.5e-07	W=4.25e-07
M\mem_reg[8]/Mmn56	\mem_reg[8]/net367#11	\mem_reg[8]/qbint#9	VSS#276
+ VSS	nfet_01v8	L=1.5e-07	W=4.25e-07
M\mem_reg[8]/Mmn21	\mem_reg[8]/CKbb#20	\mem_reg[8]/CKb#9	VSS#282
+ VSS	nfet_01v8	L=1.5e-07	W=4.25e-07
M\mem_reg[8]/Mmn20	\mem_reg[8]/CKb#25	scan_clk#61	VSS#284
+ VSS	nfet_01v8	L=1.5e-07	W=4.25e-07
M\mem_reg[8]/Mmn57	UNCONNECTED14#4	\mem_reg[8]/net367#3	VSS#274
+ VSS	nfet_01v8	L=1.5e-07	W=7.6e-07
M\mem_reg[8]/Mmn45	\mem_reg[8]/qbint#29	\mem_reg[8]/n30#3	VSS#276
+ VSS	nfet_01v8	L=1.5e-07	W=4.25e-07
M\mem_reg[8]/Mmn10	\mem_reg[8]/SEb#12	scan_en#121	VSS#286
+ VSS	nfet_01v8	L=1.5e-07	W=4.25e-07
M\mem_reg[8]/Mmn55	mem[8]#29	\mem_reg[8]/qbint#11	VSS#274
+ VSS	nfet_01v8	L=1.5e-07	W=7.6e-07
Mq_reg_reg/Mmn50	q_reg_reg/net436	q_reg_reg/qbint#7	VSS#135
+ VSS	nfet_01v8	L=1.5e-07	W=4.25e-07
Mq_reg_reg/Mmn12	q_reg_reg/Db	q_reg_reg/SEb#3
+ q_reg_reg/net449	VSS	nfet_01v8	L=1.5e-07	W=4.25e-07
Mq_reg_reg/Mmn11	q_reg_reg/net449	n_15#5	VSS#146	VSS
+ nfet_01v8	L=1.5e-07	W=4.25e-07
Mq_reg_reg/Mmn51	q_reg_reg/n30#8	q_reg_reg/CKb#11
+ q_reg_reg/net436	VSS	nfet_01v8	L=1.5e-07	W=4.25e-07
Mq_reg_reg/Mmn36	q_reg_reg/n20#8	q_reg_reg/CKbb#5
+ q_reg_reg/net429	VSS	nfet_01v8	L=1.5e-07	W=4.25e-07
Mq_reg_reg/Mmn25	q_reg_reg/n20#8	q_reg_reg/CKb#7
+ q_reg_reg/Db#5	VSS	nfet_01v8	L=1.5e-07	W=4.25e-07
Mq_reg_reg/Mmn35	q_reg_reg/net429	q_reg_reg/mout#3	VSS#139
+ VSS	nfet_01v8	L=1.5e-07	W=4.25e-07
Mq_reg_reg/Mmn13	q_reg_reg/net461	x#5	VSS#142	VSS
+ nfet_01v8	L=1.5e-07	W=4.25e-07
Mq_reg_reg/Mmn14	q_reg_reg/Db	q_control#15	q_reg_reg/net461
+ VSS	nfet_01v8	L=1.5e-07	W=4.25e-07
Mq_reg_reg/Mmn40	q_reg_reg/n30#8	q_reg_reg/CKbb#7
+ q_reg_reg/mout#8	VSS	nfet_01v8	L=1.5e-07	W=4.25e-07
Mq_reg_reg/Mmn30	q_reg_reg/mout#8	q_reg_reg/n20#3	VSS#138
+ VSS	nfet_01v8	L=1.5e-07	W=4.25e-07
Mq_reg_reg/Mmn56	q_reg_reg/net367#8	q_reg_reg/qbint#9	VSS#134
+ VSS	nfet_01v8	L=1.5e-07	W=4.25e-07
Mq_reg_reg/Mmn21	q_reg_reg/CKbb#17	q_reg_reg/CKb#9	VSS#139
+ VSS	nfet_01v8	L=1.5e-07	W=4.25e-07
Mq_reg_reg/Mmn20	q_reg_reg/CKb#22	clk#3	VSS#142	VSS
+ nfet_01v8	L=1.5e-07	W=4.25e-07
Mq_reg_reg/Mmn57	UNCONNECTED	q_reg_reg/net367#3	VSS#131
+ VSS	nfet_01v8	L=1.5e-07	W=7.6e-07
Mq_reg_reg/Mmn45	q_reg_reg/qbint#29	q_reg_reg/n30#3	VSS#134
+ VSS	nfet_01v8	L=1.5e-07	W=4.25e-07
Mq_reg_reg/Mmn10	q_reg_reg/SEb#9	q_control#13	VSS#146
+ VSS	nfet_01v8	L=1.5e-07	W=4.25e-07
Mq_reg_reg/Mmn55	FE_OFN0_q#32	q_reg_reg/qbint#11	VSS#131
+ VSS	nfet_01v8	L=1.5e-07	W=7.6e-07
M\mem_reg[9]/Mmn50	\mem_reg[9]/net436	\mem_reg[9]/qbint#7	VSS#59
+ VSS	nfet_01v8	L=1.5e-07	W=4.25e-07
M\mem_reg[9]/Mmn12	\mem_reg[9]/Db	\mem_reg[9]/SEb#3
+ \mem_reg[9]/net449	VSS	nfet_01v8	L=1.5e-07	W=4.25e-07
M\mem_reg[9]/Mmn11	\mem_reg[9]/net449	mem[9]#11	VSS#67	VSS
+ nfet_01v8	L=1.5e-07	W=4.25e-07
M\mem_reg[9]/Mmn51	\mem_reg[9]/n30#8	\mem_reg[9]/CKb#11
+ \mem_reg[9]/net436	VSS	nfet_01v8	L=1.5e-07	W=4.25e-07
M\mem_reg[9]/Mmn36	\mem_reg[9]/n20#8	\mem_reg[9]/CKbb#5
+ \mem_reg[9]/net429	VSS	nfet_01v8	L=1.5e-07	W=4.25e-07
M\mem_reg[9]/Mmn25	\mem_reg[9]/n20#8	\mem_reg[9]/CKb#7
+ \mem_reg[9]/Db#5	VSS	nfet_01v8	L=1.5e-07	W=4.25e-07
M\mem_reg[9]/Mmn35	\mem_reg[9]/net429	\mem_reg[9]/mout#3	VSS#63
+ VSS	nfet_01v8	L=1.5e-07	W=4.25e-07
M\mem_reg[9]/Mmn13	\mem_reg[9]/net461	mem[10]#7	VSS#66	VSS
+ nfet_01v8	L=1.5e-07	W=4.25e-07
M\mem_reg[9]/Mmn14	\mem_reg[9]/Db	scan_en#119	\mem_reg[9]/net461
+ VSS	nfet_01v8	L=1.5e-07	W=4.25e-07
M\mem_reg[9]/Mmn40	\mem_reg[9]/n30#8	\mem_reg[9]/CKbb#7
+ \mem_reg[9]/mout#8	VSS	nfet_01v8	L=1.5e-07	W=4.25e-07
M\mem_reg[9]/Mmn30	\mem_reg[9]/mout#8	\mem_reg[9]/n20#3	VSS#62
+ VSS	nfet_01v8	L=1.5e-07	W=4.25e-07
M\mem_reg[9]/Mmn56	\mem_reg[9]/net367#8	\mem_reg[9]/qbint#9	VSS#58
+ VSS	nfet_01v8	L=1.5e-07	W=4.25e-07
M\mem_reg[9]/Mmn21	\mem_reg[9]/CKbb#17	\mem_reg[9]/CKb#9	VSS#63
+ VSS	nfet_01v8	L=1.5e-07	W=4.25e-07
M\mem_reg[9]/Mmn20	\mem_reg[9]/CKb#22	scan_clk#59	VSS#66	VSS
+ nfet_01v8	L=1.5e-07	W=4.25e-07
M\mem_reg[9]/Mmn57	UNCONNECTED3	\mem_reg[9]/net367#3	VSS#57	VSS
+ nfet_01v8	L=1.5e-07	W=7.6e-07
M\mem_reg[9]/Mmn45	\mem_reg[9]/qbint#29	\mem_reg[9]/n30#3	VSS#58
+ VSS	nfet_01v8	L=1.5e-07	W=4.25e-07
M\mem_reg[9]/Mmn10	\mem_reg[9]/SEb#9	scan_en#117	VSS#67	VSS
+ nfet_01v8	L=1.5e-07	W=4.25e-07
M\mem_reg[9]/Mmn55	mem[9]#28	\mem_reg[9]/qbint#11	VSS#57	VSS
+ nfet_01v8	L=1.5e-07	W=7.6e-07
M\mem_reg[13]/Mmn50	\mem_reg[13]/net436	\mem_reg[13]/qbint#7	VSS#380
+ VSS	nfet_01v8	L=1.5e-07	W=4.25e-07
M\mem_reg[13]/Mmn12	\mem_reg[13]/Db#4	\mem_reg[13]/SEb#3
+ \mem_reg[13]/net449	VSS	nfet_01v8	L=1.5e-07	W=4.25e-07
M\mem_reg[13]/Mmn11	\mem_reg[13]/net449	mem[13]#7	VSS#388
+ VSS	nfet_01v8	L=1.5e-07	W=4.25e-07
M\mem_reg[13]/Mmn51	\mem_reg[13]/n30#11	\mem_reg[13]/CKb#11
+ \mem_reg[13]/net436	VSS	nfet_01v8	L=1.5e-07	W=4.25e-07
M\mem_reg[13]/Mmn36	\mem_reg[13]/n20#11	\mem_reg[13]/CKbb#5
+ \mem_reg[13]/net429	VSS	nfet_01v8	L=1.5e-07	W=4.25e-07
M\mem_reg[13]/Mmn25	\mem_reg[13]/n20#11	\mem_reg[13]/CKb#7
+ \mem_reg[13]/Db#8	VSS	nfet_01v8	L=1.5e-07	W=4.25e-07
M\mem_reg[13]/Mmn35	\mem_reg[13]/net429	\mem_reg[13]/mout#3	VSS#384
+ VSS	nfet_01v8	L=1.5e-07	W=4.25e-07
M\mem_reg[13]/Mmn13	\mem_reg[13]/net461	mem[15]#7	VSS#386
+ VSS	nfet_01v8	L=1.5e-07	W=4.25e-07
M\mem_reg[13]/Mmn14	\mem_reg[13]/Db#4	scan_en#115
+ \mem_reg[13]/net461	VSS	nfet_01v8	L=1.5e-07	W=4.25e-07
M\mem_reg[13]/Mmn40	\mem_reg[13]/n30#11	\mem_reg[13]/CKbb#7
+ \mem_reg[13]/mout#11	VSS	nfet_01v8	L=1.5e-07	W=4.25e-07
M\mem_reg[13]/Mmn30	\mem_reg[13]/mout#11	\mem_reg[13]/n20#3	VSS#382
+ VSS	nfet_01v8	L=1.5e-07	W=4.25e-07
M\mem_reg[13]/Mmn56	\mem_reg[13]/net367#11	\mem_reg[13]/qbint#9	VSS#378
+ VSS	nfet_01v8	L=1.5e-07	W=4.25e-07
M\mem_reg[13]/Mmn21	\mem_reg[13]/CKbb#20	\mem_reg[13]/CKb#9	VSS#384
+ VSS	nfet_01v8	L=1.5e-07	W=4.25e-07
M\mem_reg[13]/Mmn20	\mem_reg[13]/CKb#25	scan_clk#57	VSS#386
+ VSS	nfet_01v8	L=1.5e-07	W=4.25e-07
M\mem_reg[13]/Mmn57	UNCONNECTED5#4	\mem_reg[13]/net367#3	VSS#377
+ VSS	nfet_01v8	L=1.5e-07	W=7.6e-07
M\mem_reg[13]/Mmn45	\mem_reg[13]/qbint#29	\mem_reg[13]/n30#3	VSS#378
+ VSS	nfet_01v8	L=1.5e-07	W=4.25e-07
M\mem_reg[13]/Mmn10	\mem_reg[13]/SEb#12	scan_en#113	VSS#388
+ VSS	nfet_01v8	L=1.5e-07	W=4.25e-07
M\mem_reg[13]/Mmn55	mem[13]#29	\mem_reg[13]/qbint#11	VSS#377
+ VSS	nfet_01v8	L=1.5e-07	W=7.6e-07
M\mem_reg[6]/Mmn50	\mem_reg[6]/net436	\mem_reg[6]/qbint#7	VSS#290
+ VSS	nfet_01v8	L=1.5e-07	W=4.25e-07
M\mem_reg[6]/Mmn12	\mem_reg[6]/Db	\mem_reg[6]/SEb#3
+ \mem_reg[6]/net449	VSS	nfet_01v8	L=1.5e-07	W=4.25e-07
M\mem_reg[6]/Mmn11	\mem_reg[6]/net449	mem[6]#9	VSS#299
+ VSS	nfet_01v8	L=1.5e-07	W=4.25e-07
M\mem_reg[6]/Mmn51	\mem_reg[6]/n30#8	\mem_reg[6]/CKb#11
+ \mem_reg[6]/net436	VSS	nfet_01v8	L=1.5e-07	W=4.25e-07
M\mem_reg[6]/Mmn36	\mem_reg[6]/n20#8	\mem_reg[6]/CKbb#5
+ \mem_reg[6]/net429	VSS	nfet_01v8	L=1.5e-07	W=4.25e-07
M\mem_reg[6]/Mmn25	\mem_reg[6]/n20#8	\mem_reg[6]/CKb#7
+ \mem_reg[6]/Db#5	VSS	nfet_01v8	L=1.5e-07	W=4.25e-07
M\mem_reg[6]/Mmn35	\mem_reg[6]/net429	\mem_reg[6]/mout#3	VSS#295
+ VSS	nfet_01v8	L=1.5e-07	W=4.25e-07
M\mem_reg[6]/Mmn13	\mem_reg[6]/net461	mem[4]#9	VSS#297
+ VSS	nfet_01v8	L=1.5e-07	W=4.25e-07
M\mem_reg[6]/Mmn14	\mem_reg[6]/Db	scan_en#109	\mem_reg[6]/net461
+ VSS	nfet_01v8	L=1.5e-07	W=4.25e-07
M\mem_reg[6]/Mmn40	\mem_reg[6]/n30#8	\mem_reg[6]/CKbb#7
+ \mem_reg[6]/mout#8	VSS	nfet_01v8	L=1.5e-07	W=4.25e-07
M\mem_reg[6]/Mmn30	\mem_reg[6]/mout#8	\mem_reg[6]/n20#3	VSS#293
+ VSS	nfet_01v8	L=1.5e-07	W=4.25e-07
M\mem_reg[6]/Mmn56	\mem_reg[6]/net367#8	\mem_reg[6]/qbint#9	VSS#288
+ VSS	nfet_01v8	L=1.5e-07	W=4.25e-07
M\mem_reg[6]/Mmn21	\mem_reg[6]/CKbb#17	\mem_reg[6]/CKb#9	VSS#295
+ VSS	nfet_01v8	L=1.5e-07	W=4.25e-07
M\mem_reg[6]/Mmn20	\mem_reg[6]/CKb#22	scan_clk#53	VSS#297
+ VSS	nfet_01v8	L=1.5e-07	W=4.25e-07
M\mem_reg[6]/Mmn57	UNCONNECTED12	\mem_reg[6]/net367#3	VSS#287
+ VSS	nfet_01v8	L=1.5e-07	W=7.6e-07
M\mem_reg[6]/Mmn45	\mem_reg[6]/qbint#29	\mem_reg[6]/n30#3	VSS#288
+ VSS	nfet_01v8	L=1.5e-07	W=4.25e-07
M\mem_reg[6]/Mmn10	\mem_reg[6]/SEb#9	scan_en#105	VSS#299
+ VSS	nfet_01v8	L=1.5e-07	W=4.25e-07
M\mem_reg[6]/Mmn55	mem[6]#28	\mem_reg[6]/qbint#11	VSS#287
+ VSS	nfet_01v8	L=1.5e-07	W=7.6e-07
M\mem_reg[11]/Mmn50	\mem_reg[11]/net436	\mem_reg[11]/qbint#7	VSS#157
+ VSS	nfet_01v8	L=1.5e-07	W=4.25e-07
M\mem_reg[11]/Mmn12	\mem_reg[11]/Db#4	\mem_reg[11]/SEb#3
+ \mem_reg[11]/net449	VSS	nfet_01v8	L=1.5e-07	W=4.25e-07
M\mem_reg[11]/Mmn11	\mem_reg[11]/net449	mem[11]#7	VSS#177
+ VSS	nfet_01v8	L=1.5e-07	W=4.25e-07
M\mem_reg[11]/Mmn51	\mem_reg[11]/n30#11	\mem_reg[11]/CKb#11
+ \mem_reg[11]/net436	VSS	nfet_01v8	L=1.5e-07	W=4.25e-07
M\mem_reg[11]/Mmn36	\mem_reg[11]/n20#11	\mem_reg[11]/CKbb#5
+ \mem_reg[11]/net429	VSS	nfet_01v8	L=1.5e-07	W=4.25e-07
M\mem_reg[11]/Mmn25	\mem_reg[11]/n20#11	\mem_reg[11]/CKb#7
+ \mem_reg[11]/Db#8	VSS	nfet_01v8	L=1.5e-07	W=4.25e-07
M\mem_reg[11]/Mmn35	\mem_reg[11]/net429	\mem_reg[11]/mout#3	VSS#165
+ VSS	nfet_01v8	L=1.5e-07	W=4.25e-07
M\mem_reg[11]/Mmn13	\mem_reg[11]/net461	mem[9]#7	VSS#171
+ VSS	nfet_01v8	L=1.5e-07	W=4.25e-07
M\mem_reg[11]/Mmn14	\mem_reg[11]/Db#4	scan_en#111
+ \mem_reg[11]/net461	VSS	nfet_01v8	L=1.5e-07	W=4.25e-07
M\mem_reg[11]/Mmn40	\mem_reg[11]/n30#11	\mem_reg[11]/CKbb#7
+ \mem_reg[11]/mout#11	VSS	nfet_01v8	L=1.5e-07	W=4.25e-07
M\mem_reg[11]/Mmn30	\mem_reg[11]/mout#11	\mem_reg[11]/n20#3	VSS#164
+ VSS	nfet_01v8	L=1.5e-07	W=4.25e-07
M\mem_reg[11]/Mmn56	\mem_reg[11]/net367#11	\mem_reg[11]/qbint#9	VSS#156
+ VSS	nfet_01v8	L=1.5e-07	W=4.25e-07
M\mem_reg[11]/Mmn21	\mem_reg[11]/CKbb#20	\mem_reg[11]/CKb#9	VSS#165
+ VSS	nfet_01v8	L=1.5e-07	W=4.25e-07
M\mem_reg[11]/Mmn20	\mem_reg[11]/CKb#25	scan_clk#55	VSS#171
+ VSS	nfet_01v8	L=1.5e-07	W=4.25e-07
M\mem_reg[11]/Mmn57	UNCONNECTED16#4	\mem_reg[11]/net367#3	VSS#151
+ VSS	nfet_01v8	L=1.5e-07	W=7.6e-07
M\mem_reg[11]/Mmn45	\mem_reg[11]/qbint#29	\mem_reg[11]/n30#3	VSS#156
+ VSS	nfet_01v8	L=1.5e-07	W=4.25e-07
M\mem_reg[11]/Mmn10	\mem_reg[11]/SEb#12	scan_en#107	VSS#177
+ VSS	nfet_01v8	L=1.5e-07	W=4.25e-07
M\mem_reg[11]/Mmn55	mem[11]#29	\mem_reg[11]/qbint#11	VSS#151
+ VSS	nfet_01v8	L=1.5e-07	W=7.6e-07
Mq_control_reg/Mmn50	q_control_reg/net436	q_control_reg/qbint#7	VSS#159
+ VSS	nfet_01v8	L=1.5e-07	W=4.25e-07
Mq_control_reg/Mmn12	q_control_reg/Db	q_control_reg/SEb#3
+ q_control_reg/net449	VSS	nfet_01v8	L=1.5e-07	W=4.25e-07
Mq_control_reg/Mmn11	q_control_reg/net449	q_control#11	VSS#176
+ VSS	nfet_01v8	L=1.5e-07	W=4.25e-07
Mq_control_reg/Mmn51	q_control_reg/n30#8	q_control_reg/CKb#11
+ q_control_reg/net436	VSS	nfet_01v8	L=1.5e-07	W=4.25e-07
Mq_control_reg/Mmn36	q_control_reg/n20#8	q_control_reg/CKbb#5
+ q_control_reg/net429	VSS	nfet_01v8	L=1.5e-07	W=4.25e-07
Mq_control_reg/Mmn25	q_control_reg/n20#8	q_control_reg/CKb#7
+ q_control_reg/Db#5	VSS	nfet_01v8	L=1.5e-07	W=4.25e-07
Mq_control_reg/Mmn35	q_control_reg/net429	q_control_reg/mout#3	VSS#167
+ VSS	nfet_01v8	L=1.5e-07	W=4.25e-07
Mq_control_reg/Mmn13	q_control_reg/net461	scan_in[0]#3	VSS#170
+ VSS	nfet_01v8	L=1.5e-07	W=4.25e-07
Mq_control_reg/Mmn14	q_control_reg/Db	scan_en#103
+ q_control_reg/net461	VSS	nfet_01v8	L=1.5e-07	W=4.25e-07
Mq_control_reg/Mmn40	q_control_reg/n30#8	q_control_reg/CKbb#7
+ q_control_reg/mout#8	VSS	nfet_01v8	L=1.5e-07	W=4.25e-07
Mq_control_reg/Mmn30	q_control_reg/mout#8	q_control_reg/n20#3	VSS#163
+ VSS	nfet_01v8	L=1.5e-07	W=4.25e-07
Mq_control_reg/Mmn56	q_control_reg/net367#8	q_control_reg/qbint#9	VSS#155
+ VSS	nfet_01v8	L=1.5e-07	W=4.25e-07
Mq_control_reg/Mmn21	q_control_reg/CKbb#17	q_control_reg/CKb#9	VSS#167
+ VSS	nfet_01v8	L=1.5e-07	W=4.25e-07
Mq_control_reg/Mmn20	q_control_reg/CKb#22	scan_clk#51	VSS#170
+ VSS	nfet_01v8	L=1.5e-07	W=4.25e-07
Mq_control_reg/Mmn57	UNCONNECTED11	q_control_reg/net367#3	VSS#150
+ VSS	nfet_01v8	L=1.5e-07	W=7.6e-07
Mq_control_reg/Mmn45	q_control_reg/qbint#29	q_control_reg/n30#3	VSS#155
+ VSS	nfet_01v8	L=1.5e-07	W=4.25e-07
Mq_control_reg/Mmn10	q_control_reg/SEb#9	scan_en#101	VSS#176
+ VSS	nfet_01v8	L=1.5e-07	W=4.25e-07
Mq_control_reg/Mmn55	q_control#33	q_control_reg/qbint#11	VSS#150
+ VSS	nfet_01v8	L=1.5e-07	W=7.6e-07
M\mem_reg[5]/Mmn50	\mem_reg[5]/net436	\mem_reg[5]/qbint#7	VSS#393
+ VSS	nfet_01v8	L=1.5e-07	W=4.25e-07
M\mem_reg[5]/Mmn12	\mem_reg[5]/Db	\mem_reg[5]/SEb#3
+ \mem_reg[5]/net449	VSS	nfet_01v8	L=1.5e-07	W=4.25e-07
M\mem_reg[5]/Mmn11	\mem_reg[5]/net449	mem[5]#7	VSS#401
+ VSS	nfet_01v8	L=1.5e-07	W=4.25e-07
M\mem_reg[5]/Mmn51	\mem_reg[5]/n30#8	\mem_reg[5]/CKb#11
+ \mem_reg[5]/net436	VSS	nfet_01v8	L=1.5e-07	W=4.25e-07
M\mem_reg[5]/Mmn36	\mem_reg[5]/n20#8	\mem_reg[5]/CKbb#5
+ \mem_reg[5]/net429	VSS	nfet_01v8	L=1.5e-07	W=4.25e-07
M\mem_reg[5]/Mmn25	\mem_reg[5]/n20#8	\mem_reg[5]/CKb#7
+ \mem_reg[5]/Db#5	VSS	nfet_01v8	L=1.5e-07	W=4.25e-07
M\mem_reg[5]/Mmn35	\mem_reg[5]/net429	\mem_reg[5]/mout#3	VSS#397
+ VSS	nfet_01v8	L=1.5e-07	W=4.25e-07
M\mem_reg[5]/Mmn13	\mem_reg[5]/net461	mem[14]#9	VSS#399
+ VSS	nfet_01v8	L=1.5e-07	W=4.25e-07
M\mem_reg[5]/Mmn14	\mem_reg[5]/Db	scan_en#99	\mem_reg[5]/net461
+ VSS	nfet_01v8	L=1.5e-07	W=4.25e-07
M\mem_reg[5]/Mmn40	\mem_reg[5]/n30#8	\mem_reg[5]/CKbb#7
+ \mem_reg[5]/mout#8	VSS	nfet_01v8	L=1.5e-07	W=4.25e-07
M\mem_reg[5]/Mmn30	\mem_reg[5]/mout#8	\mem_reg[5]/n20#3	VSS#395
+ VSS	nfet_01v8	L=1.5e-07	W=4.25e-07
M\mem_reg[5]/Mmn56	\mem_reg[5]/net367#8	\mem_reg[5]/qbint#9	VSS#391
+ VSS	nfet_01v8	L=1.5e-07	W=4.25e-07
M\mem_reg[5]/Mmn21	\mem_reg[5]/CKbb#17	\mem_reg[5]/CKb#9	VSS#397
+ VSS	nfet_01v8	L=1.5e-07	W=4.25e-07
M\mem_reg[5]/Mmn20	\mem_reg[5]/CKb#22	scan_clk#49	VSS#399
+ VSS	nfet_01v8	L=1.5e-07	W=4.25e-07
M\mem_reg[5]/Mmn57	UNCONNECTED0	\mem_reg[5]/net367#3	VSS#389
+ VSS	nfet_01v8	L=1.5e-07	W=7.6e-07
M\mem_reg[5]/Mmn45	\mem_reg[5]/qbint#29	\mem_reg[5]/n30#3	VSS#391
+ VSS	nfet_01v8	L=1.5e-07	W=4.25e-07
M\mem_reg[5]/Mmn10	\mem_reg[5]/SEb#9	scan_en#95	VSS#401
+ VSS	nfet_01v8	L=1.5e-07	W=4.25e-07
M\mem_reg[5]/Mmn55	mem[5]#26	\mem_reg[5]/qbint#11	VSS#389
+ VSS	nfet_01v8	L=1.5e-07	W=7.6e-07
M\mem_reg[7]/Mmn50	\mem_reg[7]/net436	\mem_reg[7]/qbint#7	VSS#394
+ VSS	nfet_01v8	L=1.5e-07	W=4.25e-07
M\mem_reg[7]/Mmn12	\mem_reg[7]/Db#4	\mem_reg[7]/SEb#3
+ \mem_reg[7]/net449	VSS	nfet_01v8	L=1.5e-07	W=4.25e-07
M\mem_reg[7]/Mmn11	\mem_reg[7]/net449	mem[7]#7	VSS#402
+ VSS	nfet_01v8	L=1.5e-07	W=4.25e-07
M\mem_reg[7]/Mmn51	\mem_reg[7]/n30#11	\mem_reg[7]/CKb#11
+ \mem_reg[7]/net436	VSS	nfet_01v8	L=1.5e-07	W=4.25e-07
M\mem_reg[7]/Mmn36	\mem_reg[7]/n20#11	\mem_reg[7]/CKbb#5
+ \mem_reg[7]/net429	VSS	nfet_01v8	L=1.5e-07	W=4.25e-07
M\mem_reg[7]/Mmn25	\mem_reg[7]/n20#11	\mem_reg[7]/CKb#7
+ \mem_reg[7]/Db#8	VSS	nfet_01v8	L=1.5e-07	W=4.25e-07
M\mem_reg[7]/Mmn35	\mem_reg[7]/net429	\mem_reg[7]/mout#3	VSS#398
+ VSS	nfet_01v8	L=1.5e-07	W=4.25e-07
M\mem_reg[7]/Mmn13	\mem_reg[7]/net461	mem[5]#9	VSS#400
+ VSS	nfet_01v8	L=1.5e-07	W=4.25e-07
M\mem_reg[7]/Mmn14	\mem_reg[7]/Db#4	scan_en#97
+ \mem_reg[7]/net461	VSS	nfet_01v8	L=1.5e-07	W=4.25e-07
M\mem_reg[7]/Mmn40	\mem_reg[7]/n30#11	\mem_reg[7]/CKbb#7
+ \mem_reg[7]/mout#11	VSS	nfet_01v8	L=1.5e-07	W=4.25e-07
M\mem_reg[7]/Mmn30	\mem_reg[7]/mout#11	\mem_reg[7]/n20#3	VSS#396
+ VSS	nfet_01v8	L=1.5e-07	W=4.25e-07
M\mem_reg[7]/Mmn56	\mem_reg[7]/net367#11	\mem_reg[7]/qbint#9	VSS#392
+ VSS	nfet_01v8	L=1.5e-07	W=4.25e-07
M\mem_reg[7]/Mmn21	\mem_reg[7]/CKbb#20	\mem_reg[7]/CKb#9	VSS#398
+ VSS	nfet_01v8	L=1.5e-07	W=4.25e-07
M\mem_reg[7]/Mmn20	\mem_reg[7]/CKb#25	scan_clk#47	VSS#400
+ VSS	nfet_01v8	L=1.5e-07	W=4.25e-07
M\mem_reg[7]/Mmn57	UNCONNECTED13#4	\mem_reg[7]/net367#3	VSS#390
+ VSS	nfet_01v8	L=1.5e-07	W=7.6e-07
M\mem_reg[7]/Mmn45	\mem_reg[7]/qbint#29	\mem_reg[7]/n30#3	VSS#392
+ VSS	nfet_01v8	L=1.5e-07	W=4.25e-07
M\mem_reg[7]/Mmn10	\mem_reg[7]/SEb#12	scan_en#93	VSS#402
+ VSS	nfet_01v8	L=1.5e-07	W=4.25e-07
M\mem_reg[7]/Mmn55	mem[7]#27	\mem_reg[7]/qbint#11	VSS#390
+ VSS	nfet_01v8	L=1.5e-07	W=7.6e-07
M\mem_reg[14]/Mmn50	\mem_reg[14]/net436	\mem_reg[14]/qbint#7	VSS#305
+ VSS	nfet_01v8	L=1.5e-07	W=4.25e-07
M\mem_reg[14]/Mmn12	\mem_reg[14]/Db#4	\mem_reg[14]/SEb#3
+ \mem_reg[14]/net449	VSS	nfet_01v8	L=1.5e-07	W=4.25e-07
M\mem_reg[14]/Mmn11	\mem_reg[14]/net449	mem[14]#7	VSS#313
+ VSS	nfet_01v8	L=1.5e-07	W=4.25e-07
M\mem_reg[14]/Mmn51	\mem_reg[14]/n30#11	\mem_reg[14]/CKb#11
+ \mem_reg[14]/net436	VSS	nfet_01v8	L=1.5e-07	W=4.25e-07
M\mem_reg[14]/Mmn36	\mem_reg[14]/n20#11	\mem_reg[14]/CKbb#5
+ \mem_reg[14]/net429	VSS	nfet_01v8	L=1.5e-07	W=4.25e-07
M\mem_reg[14]/Mmn25	\mem_reg[14]/n20#11	\mem_reg[14]/CKb#7
+ \mem_reg[14]/Db#8	VSS	nfet_01v8	L=1.5e-07	W=4.25e-07
M\mem_reg[14]/Mmn35	\mem_reg[14]/net429	\mem_reg[14]/mout#3	VSS#309
+ VSS	nfet_01v8	L=1.5e-07	W=4.25e-07
M\mem_reg[14]/Mmn13	\mem_reg[14]/net461	mem[12]#9	VSS#311
+ VSS	nfet_01v8	L=1.5e-07	W=4.25e-07
M\mem_reg[14]/Mmn14	\mem_reg[14]/Db#4	scan_en#91
+ \mem_reg[14]/net461	VSS	nfet_01v8	L=1.5e-07	W=4.25e-07
M\mem_reg[14]/Mmn40	\mem_reg[14]/n30#11	\mem_reg[14]/CKbb#7
+ \mem_reg[14]/mout#11	VSS	nfet_01v8	L=1.5e-07	W=4.25e-07
M\mem_reg[14]/Mmn30	\mem_reg[14]/mout#11	\mem_reg[14]/n20#3	VSS#307
+ VSS	nfet_01v8	L=1.5e-07	W=4.25e-07
M\mem_reg[14]/Mmn56	\mem_reg[14]/net367#11	\mem_reg[14]/qbint#9	VSS#303
+ VSS	nfet_01v8	L=1.5e-07	W=4.25e-07
M\mem_reg[14]/Mmn21	\mem_reg[14]/CKbb#20	\mem_reg[14]/CKb#9	VSS#309
+ VSS	nfet_01v8	L=1.5e-07	W=4.25e-07
M\mem_reg[14]/Mmn20	\mem_reg[14]/CKb#25	scan_clk#45	VSS#311
+ VSS	nfet_01v8	L=1.5e-07	W=4.25e-07
M\mem_reg[14]/Mmn57	UNCONNECTED6#4	\mem_reg[14]/net367#3	VSS#301
+ VSS	nfet_01v8	L=1.5e-07	W=7.6e-07
M\mem_reg[14]/Mmn45	\mem_reg[14]/qbint#29	\mem_reg[14]/n30#3	VSS#303
+ VSS	nfet_01v8	L=1.5e-07	W=4.25e-07
M\mem_reg[14]/Mmn10	\mem_reg[14]/SEb#12	scan_en#81	VSS#313
+ VSS	nfet_01v8	L=1.5e-07	W=4.25e-07
M\mem_reg[14]/Mmn55	mem[14]#29	\mem_reg[14]/qbint#11	VSS#301
+ VSS	nfet_01v8	L=1.5e-07	W=7.6e-07
M\mem_reg[12]/Mmn50	\mem_reg[12]/net436	\mem_reg[12]/qbint#7	VSS#306
+ VSS	nfet_01v8	L=1.5e-07	W=4.25e-07
M\mem_reg[12]/Mmn12	\mem_reg[12]/Db	\mem_reg[12]/SEb#3
+ \mem_reg[12]/net449	VSS	nfet_01v8	L=1.5e-07	W=4.25e-07
M\mem_reg[12]/Mmn11	\mem_reg[12]/net449	mem[12]#7	VSS#314
+ VSS	nfet_01v8	L=1.5e-07	W=4.25e-07
M\mem_reg[12]/Mmn51	\mem_reg[12]/n30#8	\mem_reg[12]/CKb#11
+ \mem_reg[12]/net436	VSS	nfet_01v8	L=1.5e-07	W=4.25e-07
M\mem_reg[12]/Mmn36	\mem_reg[12]/n20#8	\mem_reg[12]/CKbb#5
+ \mem_reg[12]/net429	VSS	nfet_01v8	L=1.5e-07	W=4.25e-07
M\mem_reg[12]/Mmn25	\mem_reg[12]/n20#8	\mem_reg[12]/CKb#7
+ \mem_reg[12]/Db#5	VSS	nfet_01v8	L=1.5e-07	W=4.25e-07
M\mem_reg[12]/Mmn35	\mem_reg[12]/net429	\mem_reg[12]/mout#3	VSS#310
+ VSS	nfet_01v8	L=1.5e-07	W=4.25e-07
M\mem_reg[12]/Mmn13	\mem_reg[12]/net461	mem[6]#7	VSS#312
+ VSS	nfet_01v8	L=1.5e-07	W=4.25e-07
M\mem_reg[12]/Mmn14	\mem_reg[12]/Db	scan_en#83
+ \mem_reg[12]/net461	VSS	nfet_01v8	L=1.5e-07	W=4.25e-07
M\mem_reg[12]/Mmn40	\mem_reg[12]/n30#8	\mem_reg[12]/CKbb#7
+ \mem_reg[12]/mout#8	VSS	nfet_01v8	L=1.5e-07	W=4.25e-07
M\mem_reg[12]/Mmn30	\mem_reg[12]/mout#8	\mem_reg[12]/n20#3	VSS#308
+ VSS	nfet_01v8	L=1.5e-07	W=4.25e-07
M\mem_reg[12]/Mmn56	\mem_reg[12]/net367#8	\mem_reg[12]/qbint#9	VSS#304
+ VSS	nfet_01v8	L=1.5e-07	W=4.25e-07
M\mem_reg[12]/Mmn21	\mem_reg[12]/CKbb#17	\mem_reg[12]/CKb#9	VSS#310
+ VSS	nfet_01v8	L=1.5e-07	W=4.25e-07
M\mem_reg[12]/Mmn20	\mem_reg[12]/CKb#22	scan_clk#37	VSS#312
+ VSS	nfet_01v8	L=1.5e-07	W=4.25e-07
M\mem_reg[12]/Mmn57	UNCONNECTED4	\mem_reg[12]/net367#3	VSS#302
+ VSS	nfet_01v8	L=1.5e-07	W=7.6e-07
M\mem_reg[12]/Mmn45	\mem_reg[12]/qbint#29	\mem_reg[12]/n30#3	VSS#304
+ VSS	nfet_01v8	L=1.5e-07	W=4.25e-07
M\mem_reg[12]/Mmn10	\mem_reg[12]/SEb#9	scan_en#73	VSS#314
+ VSS	nfet_01v8	L=1.5e-07	W=4.25e-07
M\mem_reg[12]/Mmn55	mem[12]#26	\mem_reg[12]/qbint#11	VSS#302
+ VSS	nfet_01v8	L=1.5e-07	W=7.6e-07
M\mem_reg[4]/Mmn50	\mem_reg[4]/net436	\mem_reg[4]/qbint#7	VSS#94
+ VSS	nfet_01v8	L=1.5e-07	W=4.25e-07
M\mem_reg[4]/Mmn12	\mem_reg[4]/Db#4	\mem_reg[4]/SEb#3
+ \mem_reg[4]/net449	VSS	nfet_01v8	L=1.5e-07	W=4.25e-07
M\mem_reg[4]/Mmn11	\mem_reg[4]/net449	mem[4]#7	VSS#107
+ VSS	nfet_01v8	L=1.5e-07	W=4.25e-07
M\mem_reg[4]/Mmn51	\mem_reg[4]/n30#11	\mem_reg[4]/CKb#11
+ \mem_reg[4]/net436	VSS	nfet_01v8	L=1.5e-07	W=4.25e-07
M\mem_reg[4]/Mmn36	\mem_reg[4]/n20#11	\mem_reg[4]/CKbb#5
+ \mem_reg[4]/net429	VSS	nfet_01v8	L=1.5e-07	W=4.25e-07
M\mem_reg[4]/Mmn25	\mem_reg[4]/n20#11	\mem_reg[4]/CKb#7
+ \mem_reg[4]/Db#8	VSS	nfet_01v8	L=1.5e-07	W=4.25e-07
M\mem_reg[4]/Mmn35	\mem_reg[4]/net429	\mem_reg[4]/mout#3	VSS#102
+ VSS	nfet_01v8	L=1.5e-07	W=4.25e-07
M\mem_reg[4]/Mmn13	\mem_reg[4]/net461	mem[1]#9	VSS#105
+ VSS	nfet_01v8	L=1.5e-07	W=4.25e-07
M\mem_reg[4]/Mmn14	\mem_reg[4]/Db#4	scan_en#85
+ \mem_reg[4]/net461	VSS	nfet_01v8	L=1.5e-07	W=4.25e-07
M\mem_reg[4]/Mmn40	\mem_reg[4]/n30#11	\mem_reg[4]/CKbb#7
+ \mem_reg[4]/mout#11	VSS	nfet_01v8	L=1.5e-07	W=4.25e-07
M\mem_reg[4]/Mmn30	\mem_reg[4]/mout#11	\mem_reg[4]/n20#3	VSS#97
+ VSS	nfet_01v8	L=1.5e-07	W=4.25e-07
M\mem_reg[4]/Mmn56	\mem_reg[4]/net367#11	\mem_reg[4]/qbint#9	VSS#91
+ VSS	nfet_01v8	L=1.5e-07	W=4.25e-07
M\mem_reg[4]/Mmn21	\mem_reg[4]/CKbb#20	\mem_reg[4]/CKb#9	VSS#102
+ VSS	nfet_01v8	L=1.5e-07	W=4.25e-07
M\mem_reg[4]/Mmn20	\mem_reg[4]/CKb#25	scan_clk#39	VSS#105
+ VSS	nfet_01v8	L=1.5e-07	W=4.25e-07
M\mem_reg[4]/Mmn57	UNCONNECTED17#4	\mem_reg[4]/net367#3	VSS#88
+ VSS	nfet_01v8	L=1.5e-07	W=7.6e-07
M\mem_reg[4]/Mmn45	\mem_reg[4]/qbint#29	\mem_reg[4]/n30#3	VSS#91
+ VSS	nfet_01v8	L=1.5e-07	W=4.25e-07
M\mem_reg[4]/Mmn10	\mem_reg[4]/SEb#12	scan_en#75	VSS#107
+ VSS	nfet_01v8	L=1.5e-07	W=4.25e-07
M\mem_reg[4]/Mmn55	mem[4]#27	\mem_reg[4]/qbint#11	VSS#88	VSS
+ nfet_01v8	L=1.5e-07	W=7.6e-07
M\mem_reg[1]/Mmn50	\mem_reg[1]/net436	\mem_reg[1]/qbint#7	VSS#90
+ VSS	nfet_01v8	L=1.5e-07	W=4.25e-07
M\mem_reg[1]/Mmn12	\mem_reg[1]/Db	\mem_reg[1]/SEb#3
+ \mem_reg[1]/net449	VSS	nfet_01v8	L=1.5e-07	W=4.25e-07
M\mem_reg[1]/Mmn11	\mem_reg[1]/net449	mem[1]#7	VSS#104
+ VSS	nfet_01v8	L=1.5e-07	W=4.25e-07
M\mem_reg[1]/Mmn51	\mem_reg[1]/n30#8	\mem_reg[1]/CKb#11
+ \mem_reg[1]/net436	VSS	nfet_01v8	L=1.5e-07	W=4.25e-07
M\mem_reg[1]/Mmn36	\mem_reg[1]/n20#8	\mem_reg[1]/CKbb#5
+ \mem_reg[1]/net429	VSS	nfet_01v8	L=1.5e-07	W=4.25e-07
M\mem_reg[1]/Mmn25	\mem_reg[1]/n20#8	\mem_reg[1]/CKb#7
+ \mem_reg[1]/Db#5	VSS	nfet_01v8	L=1.5e-07	W=4.25e-07
M\mem_reg[1]/Mmn35	\mem_reg[1]/net429	\mem_reg[1]/mout#3	VSS#96
+ VSS	nfet_01v8	L=1.5e-07	W=4.25e-07
M\mem_reg[1]/Mmn13	\mem_reg[1]/net461	mem[3]#9	VSS#101
+ VSS	nfet_01v8	L=1.5e-07	W=4.25e-07
M\mem_reg[1]/Mmn14	\mem_reg[1]/Db	scan_en#87	\mem_reg[1]/net461
+ VSS	nfet_01v8	L=1.5e-07	W=4.25e-07
M\mem_reg[1]/Mmn40	\mem_reg[1]/n30#8	\mem_reg[1]/CKbb#7
+ \mem_reg[1]/mout#8	VSS	nfet_01v8	L=1.5e-07	W=4.25e-07
M\mem_reg[1]/Mmn30	\mem_reg[1]/mout#8	\mem_reg[1]/n20#3	VSS#93
+ VSS	nfet_01v8	L=1.5e-07	W=4.25e-07
M\mem_reg[1]/Mmn56	\mem_reg[1]/net367#8	\mem_reg[1]/qbint#9	VSS#87
+ VSS	nfet_01v8	L=1.5e-07	W=4.25e-07
M\mem_reg[1]/Mmn21	\mem_reg[1]/CKbb#17	\mem_reg[1]/CKb#9	VSS#96
+ VSS	nfet_01v8	L=1.5e-07	W=4.25e-07
M\mem_reg[1]/Mmn20	\mem_reg[1]/CKb#22	scan_clk#41	VSS#101
+ VSS	nfet_01v8	L=1.5e-07	W=4.25e-07
M\mem_reg[1]/Mmn57	UNCONNECTED10	\mem_reg[1]/net367#3	VSS#82	VSS
+ nfet_01v8	L=1.5e-07	W=7.6e-07
M\mem_reg[1]/Mmn45	\mem_reg[1]/qbint#29	\mem_reg[1]/n30#3	VSS#87
+ VSS	nfet_01v8	L=1.5e-07	W=4.25e-07
M\mem_reg[1]/Mmn10	\mem_reg[1]/SEb#9	scan_en#77	VSS#104
+ VSS	nfet_01v8	L=1.5e-07	W=4.25e-07
M\mem_reg[1]/Mmn55	mem[1]#26	\mem_reg[1]/qbint#11	VSS#82	VSS
+ nfet_01v8	L=1.5e-07	W=7.6e-07
M\mem_reg[3]/Mmn50	\mem_reg[3]/net436	\mem_reg[3]/qbint#7	VSS#189
+ VSS	nfet_01v8	L=1.5e-07	W=4.25e-07
M\mem_reg[3]/Mmn12	\mem_reg[3]/Db#4	\mem_reg[3]/SEb#3
+ \mem_reg[3]/net449	VSS	nfet_01v8	L=1.5e-07	W=4.25e-07
M\mem_reg[3]/Mmn11	\mem_reg[3]/net449	mem[3]#7	VSS#213
+ VSS	nfet_01v8	L=1.5e-07	W=4.25e-07
M\mem_reg[3]/Mmn51	\mem_reg[3]/n30#11	\mem_reg[3]/CKb#11
+ \mem_reg[3]/net436	VSS	nfet_01v8	L=1.5e-07	W=4.25e-07
M\mem_reg[3]/Mmn36	\mem_reg[3]/n20#11	\mem_reg[3]/CKbb#5
+ \mem_reg[3]/net429	VSS	nfet_01v8	L=1.5e-07	W=4.25e-07
M\mem_reg[3]/Mmn25	\mem_reg[3]/n20#11	\mem_reg[3]/CKb#7
+ \mem_reg[3]/Db#8	VSS	nfet_01v8	L=1.5e-07	W=4.25e-07
M\mem_reg[3]/Mmn35	\mem_reg[3]/net429	\mem_reg[3]/mout#3	VSS#199
+ VSS	nfet_01v8	L=1.5e-07	W=4.25e-07
M\mem_reg[3]/Mmn13	\mem_reg[3]/net461	q_control#9	VSS#208
+ VSS	nfet_01v8	L=1.5e-07	W=4.25e-07
M\mem_reg[3]/Mmn14	\mem_reg[3]/Db#4	scan_en#89
+ \mem_reg[3]/net461	VSS	nfet_01v8	L=1.5e-07	W=4.25e-07
M\mem_reg[3]/Mmn40	\mem_reg[3]/n30#11	\mem_reg[3]/CKbb#7
+ \mem_reg[3]/mout#11	VSS	nfet_01v8	L=1.5e-07	W=4.25e-07
M\mem_reg[3]/Mmn30	\mem_reg[3]/mout#11	\mem_reg[3]/n20#3	VSS#195
+ VSS	nfet_01v8	L=1.5e-07	W=4.25e-07
M\mem_reg[3]/Mmn56	\mem_reg[3]/net367#11	\mem_reg[3]/qbint#9	VSS#185
+ VSS	nfet_01v8	L=1.5e-07	W=4.25e-07
M\mem_reg[3]/Mmn21	\mem_reg[3]/CKbb#20	\mem_reg[3]/CKb#9	VSS#199
+ VSS	nfet_01v8	L=1.5e-07	W=4.25e-07
M\mem_reg[3]/Mmn20	\mem_reg[3]/CKb#25	scan_clk#43	VSS#208
+ VSS	nfet_01v8	L=1.5e-07	W=4.25e-07
M\mem_reg[3]/Mmn57	UNCONNECTED8#4	\mem_reg[3]/net367#3	VSS#181
+ VSS	nfet_01v8	L=1.5e-07	W=7.6e-07
M\mem_reg[3]/Mmn45	\mem_reg[3]/qbint#29	\mem_reg[3]/n30#3	VSS#185
+ VSS	nfet_01v8	L=1.5e-07	W=4.25e-07
M\mem_reg[3]/Mmn10	\mem_reg[3]/SEb#12	scan_en#79	VSS#213
+ VSS	nfet_01v8	L=1.5e-07	W=4.25e-07
M\mem_reg[3]/Mmn55	mem[3]#29	\mem_reg[3]/qbint#11	VSS#181
+ VSS	nfet_01v8	L=1.5e-07	W=7.6e-07
MFE_OFC0_q/Mmn0@3	VSS#55	FE_OFN0_q#9	FE_OFC0_q/n0#114	VSS
+ nfet_01v8	L=1.5e-07	W=7.6e-07
MFE_OFC0_q/Mmn0	VSS#53	FE_OFN0_q#11	FE_OFC0_q/n0#114	VSS
+ nfet_01v8	L=1.5e-07	W=7.6e-07
MFE_OFC0_q/Mmn0@2	VSS#53	FE_OFN0_q#13	FE_OFC0_q/n0#118	VSS
+ nfet_01v8	L=1.5e-07	W=7.6e-07
MFE_OFC0_q/Mmn0@1	VSS#52	FE_OFN0_q#15	FE_OFC0_q/n0#118	VSS
+ nfet_01v8	L=1.5e-07	W=7.6e-07
MFE_OFC0_q/Mmn1@1	VSS#52	FE_OFC0_q/n0#33	q#1	VSS
+ nfet_01v8	L=1.5e-07	W=7.6e-07
MFE_OFC0_q/Mmn1@3	VSS#51	FE_OFC0_q/n0#35	q#1	VSS
+ nfet_01v8	L=1.5e-07	W=7.6e-07
MFE_OFC0_q/Mmn1@4	VSS#51	FE_OFC0_q/n0#37	q#5	VSS
+ nfet_01v8	L=1.5e-07	W=7.6e-07
MFE_OFC0_q/Mmn1@15	VSS#49	FE_OFC0_q/n0#39	q#5	VSS
+ nfet_01v8	L=1.5e-07	W=7.6e-07
MFE_OFC0_q/Mmn1@9	VSS#49	FE_OFC0_q/n0#41	q#9	VSS
+ nfet_01v8	L=1.5e-07	W=7.6e-07
MFE_OFC0_q/Mmn1@6	VSS#47	FE_OFC0_q/n0#43	q#9	VSS
+ nfet_01v8	L=1.5e-07	W=7.6e-07
MFE_OFC0_q/Mmn1@8	VSS#47	FE_OFC0_q/n0#45	q#13	VSS
+ nfet_01v8	L=1.5e-07	W=7.6e-07
MFE_OFC0_q/Mmn1@5	VSS#46	FE_OFC0_q/n0#47	q#13	VSS
+ nfet_01v8	L=1.5e-07	W=7.6e-07
MFE_OFC0_q/Mmn1@2	VSS#46	FE_OFC0_q/n0#49	q#17	VSS
+ nfet_01v8	L=1.5e-07	W=7.6e-07
MFE_OFC0_q/Mmn1@7	VSS#44	FE_OFC0_q/n0#51	q#17	VSS
+ nfet_01v8	L=1.5e-07	W=7.6e-07
MFE_OFC0_q/Mmn1@11	VSS#44	FE_OFC0_q/n0#53	q#21	VSS
+ nfet_01v8	L=1.5e-07	W=7.6e-07
MFE_OFC0_q/Mmn1	VSS#42	FE_OFC0_q/n0#55	q#21	VSS	nfet_01v8
+ L=1.5e-07	W=7.6e-07
MFE_OFC0_q/Mmn1@10	VSS#42	FE_OFC0_q/n0#57	q#25	VSS
+ nfet_01v8	L=1.5e-07	W=7.6e-07
MFE_OFC0_q/Mmn1@14	VSS#41	FE_OFC0_q/n0#59	q#25	VSS
+ nfet_01v8	L=1.5e-07	W=7.6e-07
MFE_OFC0_q/Mmn1@12	VSS#41	FE_OFC0_q/n0#61	q#29	VSS
+ nfet_01v8	L=1.5e-07	W=7.6e-07
MFE_OFC0_q/Mmn1@13	VSS#1	FE_OFC0_q/n0#63	q#29	VSS
+ nfet_01v8	L=1.5e-07	W=7.6e-07
MFE_OFC1_scan_out_0/Mmn0@3	VSS#212	FE_OFN1_scan_out_0#15
+ FE_OFC1_scan_out_0/n0#114	VSS	nfet_01v8	L=1.5e-07
+ W=7.6e-07
MFE_OFC1_scan_out_0/Mmn0	VSS#210	FE_OFN1_scan_out_0#17
+ FE_OFC1_scan_out_0/n0#114	VSS	nfet_01v8	L=1.5e-07
+ W=7.6e-07
MFE_OFC1_scan_out_0/Mmn0@2	VSS#210	FE_OFN1_scan_out_0#19
+ FE_OFC1_scan_out_0/n0#118	VSS	nfet_01v8	L=1.5e-07
+ W=7.6e-07
MFE_OFC1_scan_out_0/Mmn0@1	VSS#207	FE_OFN1_scan_out_0#21
+ FE_OFC1_scan_out_0/n0#118	VSS	nfet_01v8	L=1.5e-07
+ W=7.6e-07
MFE_OFC1_scan_out_0/Mmn1@1	VSS#207	FE_OFC1_scan_out_0/n0#33
+ scan_out[0]#1	VSS	nfet_01v8	L=1.5e-07	W=7.6e-07
MFE_OFC1_scan_out_0/Mmn1@3	VSS#204	FE_OFC1_scan_out_0/n0#35
+ scan_out[0]#1	VSS	nfet_01v8	L=1.5e-07	W=7.6e-07
MFE_OFC1_scan_out_0/Mmn1@4	VSS#204	FE_OFC1_scan_out_0/n0#37
+ scan_out[0]#5	VSS	nfet_01v8	L=1.5e-07	W=7.6e-07
MFE_OFC1_scan_out_0/Mmn1@15	VSS#202	FE_OFC1_scan_out_0/n0#39
+ scan_out[0]#5	VSS	nfet_01v8	L=1.5e-07	W=7.6e-07
MFE_OFC1_scan_out_0/Mmn1@9	VSS#202	FE_OFC1_scan_out_0/n0#41
+ scan_out[0]#9	VSS	nfet_01v8	L=1.5e-07	W=7.6e-07
MFE_OFC1_scan_out_0/Mmn1@6	VSS#198	FE_OFC1_scan_out_0/n0#43
+ scan_out[0]#9	VSS	nfet_01v8	L=1.5e-07	W=7.6e-07
MFE_OFC1_scan_out_0/Mmn1@8	VSS#198	FE_OFC1_scan_out_0/n0#45
+ scan_out[0]#13	VSS	nfet_01v8	L=1.5e-07	W=7.6e-07
MFE_OFC1_scan_out_0/Mmn1@5	VSS#194	FE_OFC1_scan_out_0/n0#47
+ scan_out[0]#13	VSS	nfet_01v8	L=1.5e-07	W=7.6e-07
MFE_OFC1_scan_out_0/Mmn1@2	VSS#194	FE_OFC1_scan_out_0/n0#49
+ scan_out[0]#17	VSS	nfet_01v8	L=1.5e-07	W=7.6e-07
MFE_OFC1_scan_out_0/Mmn1@7	VSS#191	FE_OFC1_scan_out_0/n0#51
+ scan_out[0]#17	VSS	nfet_01v8	L=1.5e-07	W=7.6e-07
MFE_OFC1_scan_out_0/Mmn1@11	VSS#191	FE_OFC1_scan_out_0/n0#53
+ scan_out[0]#21	VSS	nfet_01v8	L=1.5e-07	W=7.6e-07
MFE_OFC1_scan_out_0/Mmn1	VSS#188	FE_OFC1_scan_out_0/n0#55
+ scan_out[0]#21	VSS	nfet_01v8	L=1.5e-07	W=7.6e-07
MFE_OFC1_scan_out_0/Mmn1@10	VSS#188	FE_OFC1_scan_out_0/n0#57
+ scan_out[0]#25	VSS	nfet_01v8	L=1.5e-07	W=7.6e-07
MFE_OFC1_scan_out_0/Mmn1@14	VSS#184	FE_OFC1_scan_out_0/n0#59
+ scan_out[0]#25	VSS	nfet_01v8	L=1.5e-07	W=7.6e-07
MFE_OFC1_scan_out_0/Mmn1@12	VSS#184	FE_OFC1_scan_out_0/n0#61
+ scan_out[0]#29	VSS	nfet_01v8	L=1.5e-07	W=7.6e-07
MFE_OFC1_scan_out_0/Mmn1@13	VSS#180	FE_OFC1_scan_out_0/n0#63
+ scan_out[0]#29	VSS	nfet_01v8	L=1.5e-07	W=7.6e-07
Mg526/Mmp0	n_12#29	addr[2]#5	VDD#57	VDD	pfet_01v8
+ L=1.5e-07	W=1.13e-06
Mg527/Mmp0	n_2#29	addr[1]#15	VDD#245	VDD	pfet_01v8
+ L=1.5e-07	W=1.13e-06
Mg525__6131/Mmp0	g525__6131/net41	addr[0]#7	VDD#314
+ VDD	pfet_01v8	L=1.5e-07	W=1.13e-06
Mg525__6131/Mmp1	n_8#36	addr[1]#9	g525__6131/net41	VDD
+ pfet_01v8	L=1.5e-07	W=1.13e-06
Mg524__7098/Mmp0	g524__7098/net41	addr[0]#1	VDD#88	VDD
+ pfet_01v8	L=1.5e-07	W=1.13e-06
Mg524__7098/Mmp1	n_7#31	n_2#3	g524__7098/net41	VDD
+ pfet_01v8	L=1.5e-07	W=1.13e-06
Mg523__8246/Mmp1	n_11#16	n_12#3	VDD#241	VDD
+ pfet_01v8	L=1.5e-07	W=1.13e-06
Mg523__8246/Mmp0	n_11#16	addr[0]#9	VDD#242	VDD
+ pfet_01v8	L=1.5e-07	W=1.13e-06
Mg510__3680/Mmp1	g510__3680/net89#3	mem[8]#5	VDD#224
+ VDD	pfet_01v8	L=1.5e-07	W=1.13e-06
Mg510__3680/Mmp2	n_5#13	n_7#7	g510__3680/net89#5	VDD
+ pfet_01v8	L=1.5e-07	W=1.13e-06
Mg510__3680/Mmp3	n_5#13	mem[10]#5	g510__3680/net89#3	VDD
+ pfet_01v8	L=1.5e-07	W=1.13e-06
Mg510__3680/Mmp0	g510__3680/net89	n_8#7	VDD#224	VDD
+ pfet_01v8	L=1.5e-07	W=1.13e-06
Mg509__6783/Mmp1	g509__6783/net89#3	mem[0]	VDD#304	VDD
+ pfet_01v8	L=1.5e-07	W=1.13e-06
Mg509__6783/Mmp2	n_6#13	n_7#5	g509__6783/net89#5	VDD
+ pfet_01v8	L=1.5e-07	W=1.13e-06
Mg509__6783/Mmp3	n_6#13	mem[2]	g509__6783/net89#3	VDD
+ pfet_01v8	L=1.5e-07	W=1.13e-06
Mg509__6783/Mmp0	g509__6783/net89	n_8#5	VDD#304	VDD
+ pfet_01v8	L=1.5e-07	W=1.13e-06
Mg522__2802/Mmp1	g522__2802/net89#3	mem[9]#3	VDD#85	VDD
+ pfet_01v8	L=1.5e-07	W=1.13e-06
Mg522__2802/Mmp2	n_3#11	addr[1]#5	g522__2802/net89#5	VDD
+ pfet_01v8	L=1.5e-07	W=1.13e-06
Mg522__2802/Mmp3	n_3#11	mem[11]#3	g522__2802/net89#3	VDD
+ pfet_01v8	L=1.5e-07	W=1.13e-06
Mg522__2802/Mmp0	g522__2802/net89	n_2#5	VDD#85	VDD
+ pfet_01v8	L=1.5e-07	W=1.13e-06
Mg521__1617/Mmp1	g521__1617/net89#4	mem[1]#5	VDD#250
+ VDD	pfet_01v8	L=1.5e-07	W=1.13e-06
Mg521__1617/Mmp2	n_4#10	addr[1]#1	g521__1617/net89#6	VDD
+ pfet_01v8	L=1.5e-07	W=1.13e-06
Mg521__1617/Mmp3	n_4#10	mem[3]#5	g521__1617/net89#4	VDD
+ pfet_01v8	L=1.5e-07	W=1.13e-06
Mg521__1617/Mmp0	g521__1617/net89#2	n_2	VDD#250	VDD
+ pfet_01v8	L=1.5e-07	W=1.13e-06
Mg497__8428/Mmp3	g497__8428/net118#2	n_0	g497__8428/net122#4
+ VDD	pfet_01v8	L=1.5e-07	W=1.13e-06
Mg497__8428/Mmp5	n_10#10	mem[6]#5	g497__8428/net118#6
+ VDD	pfet_01v8	L=1.5e-07	W=1.13e-06
Mg497__8428/Mmp1	g497__8428/net122#4	mem[4]#5	VDD#248
+ VDD	pfet_01v8	L=1.5e-07	W=1.13e-06
Mg497__8428/Mmp4	n_10#10	n_7#3	g497__8428/net118#4	VDD
+ pfet_01v8	L=1.5e-07	W=1.13e-06
Mg497__8428/Mmp2	g497__8428/net118#2	addr[0]#5
+ g497__8428/net122#6	VDD	pfet_01v8	L=1.5e-07	W=1.13e-06
Mg497__8428/Mmp0	g497__8428/net122#2	n_8#3	VDD#248	VDD
+ pfet_01v8	L=1.5e-07	W=1.13e-06
Mg498__5526/Mmp3	g498__5526/net118#2	n_1	g498__5526/net122#4
+ VDD	pfet_01v8	L=1.5e-07	W=1.13e-06
Mg498__5526/Mmp5	n_9#10	mem[14]#5	g498__5526/net118#6	VDD
+ pfet_01v8	L=1.5e-07	W=1.13e-06
Mg498__5526/Mmp1	g498__5526/net122#4	mem[12]#5	VDD#320
+ VDD	pfet_01v8	L=1.5e-07	W=1.13e-06
Mg498__5526/Mmp4	n_9#10	n_7	g498__5526/net118#4	VDD
+ pfet_01v8	L=1.5e-07	W=1.13e-06
Mg498__5526/Mmp2	g498__5526/net118#2	addr[0]#3
+ g498__5526/net122#6	VDD	pfet_01v8	L=1.5e-07	W=1.13e-06
Mg498__5526/Mmp0	g498__5526/net122#2	n_8	VDD#320	VDD
+ pfet_01v8	L=1.5e-07	W=1.13e-06
Mg495__6260/Mmp0	g495__6260/n2	addr[2]#3	VDD#239	VDD
+ pfet_01v8	L=1.5e-07	W=1.13e-06
Mg495__6260/Mmp3	n_14#11	n_9	g495__6260/n3	VDD
+ pfet_01v8	L=1.5e-07	W=1.13e-06
Mg495__6260/Mmp5	n_14#11	n_3	g495__6260/n4	VDD
+ pfet_01v8	L=1.5e-07	W=1.13e-06
Mg495__6260/Mmp4	g495__6260/n4	n_11#3	VDD#235	VDD
+ pfet_01v8	L=1.5e-07	W=1.13e-06
Mg495__6260/Mmp2	g495__6260/n3	n_12#5	VDD#237	VDD
+ pfet_01v8	L=1.5e-07	W=1.13e-06
Mg495__6260/Mmp1	n_14#9	n_5	g495__6260/n2	VDD	pfet_01v8
+ L=1.5e-07	W=1.13e-06
Mg496__4319/Mmp0	g496__4319/n2	addr[2]#1	VDD#312	VDD
+ pfet_01v8	L=1.5e-07	W=1.13e-06
Mg496__4319/Mmp3	n_13#11	n_10	g496__4319/n3	VDD
+ pfet_01v8	L=1.5e-07	W=1.13e-06
Mg496__4319/Mmp5	n_13#11	n_4	g496__4319/n4	VDD
+ pfet_01v8	L=1.5e-07	W=1.13e-06
Mg496__4319/Mmp4	g496__4319/n4	n_11	VDD#303	VDD
+ pfet_01v8	L=1.5e-07	W=1.13e-06
Mg496__4319/Mmp2	g496__4319/n3	n_12	VDD#307	VDD
+ pfet_01v8	L=1.5e-07	W=1.13e-06
Mg496__4319/Mmp1	n_13#9	n_6	g496__4319/n2	VDD	pfet_01v8
+ L=1.5e-07	W=1.13e-06
Mg494__5107/Mmp4	g494__5107/n0#9	g494__5107/S0b	g494__5107/n6
+ VDD	pfet_01v8	L=1.5e-07	W=6.25e-07
Mg494__5107/Mmp3	g494__5107/n6	n_14	VDD#273	VDD
+ pfet_01v8	L=1.5e-07	W=6.25e-07
Mg494__5107/Mmp5	n_15#20	g494__5107/n0	VDD#273	VDD
+ pfet_01v8	L=1.5e-07	W=1.13e-06
Mg494__5107/Mmp1	g494__5107/n4	n_13	VDD#275	VDD
+ pfet_01v8	L=1.5e-07	W=6.25e-07
Mg494__5107/Mmp2	g494__5107/n0#9	addr[3]#3	g494__5107/n4
+ VDD	pfet_01v8	L=1.5e-07	W=6.25e-07
Mg494__5107/Mmp0	g494__5107/S0b#9	addr[3]#1	VDD#275
+ VDD	pfet_01v8	L=1.5e-07	W=6.25e-07
Mg519__1705/Mmp4	g519__1705/n0#11	g519__1705/S0b	g519__1705/n6
+ VDD	pfet_01v8	L=1.5e-07	W=6.25e-07
Mg519__1705/Mmp3	g519__1705/n6	mem[15]#3	VDD#308	VDD
+ pfet_01v8	L=1.5e-07	W=6.25e-07
Mg519__1705/Mmp5	n_1#12	g519__1705/n0	VDD#308	VDD
+ pfet_01v8	L=1.5e-07	W=1.13e-06
Mg519__1705/Mmp1	g519__1705/n4	mem[13]#3	VDD#315	VDD
+ pfet_01v8	L=1.5e-07	W=6.25e-07
Mg519__1705/Mmp2	g519__1705/n0#11	addr[1]#13	g519__1705/n4
+ VDD	pfet_01v8	L=1.5e-07	W=6.25e-07
Mg519__1705/Mmp0	g519__1705/S0b#11	addr[1]#11	VDD#315
+ VDD	pfet_01v8	L=1.5e-07	W=6.25e-07
Mg520__5122/Mmp4	g520__5122/n0#11	g520__5122/S0b	g520__5122/n6
+ VDD	pfet_01v8	L=1.5e-07	W=6.25e-07
Mg520__5122/Mmp3	g520__5122/n6	mem[7]#3	VDD#321	VDD
+ pfet_01v8	L=1.5e-07	W=6.25e-07
Mg520__5122/Mmp5	n_0#12	g520__5122/n0	VDD#321	VDD
+ pfet_01v8	L=1.5e-07	W=1.13e-06
Mg520__5122/Mmp1	g520__5122/n4	mem[5]#5	VDD#322	VDD
+ pfet_01v8	L=1.5e-07	W=6.25e-07
Mg520__5122/Mmp2	g520__5122/n0#11	addr[1]#7	g520__5122/n4
+ VDD	pfet_01v8	L=1.5e-07	W=6.25e-07
Mg520__5122/Mmp0	g520__5122/S0b#11	addr[1]#3	VDD#322
+ VDD	pfet_01v8	L=1.5e-07	W=6.25e-07
Mg493__2398/Mmp5	mux#3	g493__2398/n0	VDD#136	VDD
+ pfet_01v8	L=1.5e-07	W=1.13e-06
Mg493__2398/Mmp5@1	mux#3	g493__2398/n0#3	VDD#135	VDD
+ pfet_01v8	L=1.5e-07	W=1.13e-06
Mg493__2398/Mmp5@2	mux#7	g493__2398/n0#5	VDD#135	VDD
+ pfet_01v8	L=1.5e-07	W=1.13e-06
Mg493__2398/Mmp5@3	mux#7	g493__2398/n0#7	VDD#103	VDD
+ pfet_01v8	L=1.5e-07	W=1.13e-06
Mg493__2398/Mmp1	g493__2398/n4	n_15#3	VDD#137	VDD
+ pfet_01v8	L=1.5e-07	W=9.05e-07
Mg493__2398/Mmp4	g493__2398/n0#32	g493__2398/S0b	g493__2398/n6
+ VDD	pfet_01v8	L=1.5e-07	W=9.05e-07
Mg493__2398/Mmp0	g493__2398/S0b#12	FE_OFN1_scan_out_0#11	VDD#137
+ VDD	pfet_01v8	L=1.5e-07	W=6.25e-07
Mg493__2398/Mmp2	g493__2398/n0#32	FE_OFN1_scan_out_0#13
+ g493__2398/n4	VDD	pfet_01v8	L=1.5e-07	W=9.05e-07
Mg493__2398/Mmp3	g493__2398/n6	x#3	VDD#136	VDD
+ pfet_01v8	L=1.5e-07	W=9.05e-07
M\mem_reg[10]/Mmp50	\mem_reg[10]/net376	\mem_reg[10]/qbint	VDD#225
+ VDD	pfet_01v8	L=1.5e-07	W=6.25e-07
M\mem_reg[10]/Mmp30	\mem_reg[10]/mout#8	\mem_reg[10]/n20	VDD#227
+ VDD	pfet_01v8	L=1.5e-07	W=6.25e-07
M\mem_reg[10]/Mmp14	\mem_reg[10]/Db	\mem_reg[10]/SEb
+ \mem_reg[10]/net392	VDD	pfet_01v8	L=1.5e-07	W=6.25e-07
M\mem_reg[10]/Mmp51	\mem_reg[10]/n30#8	\mem_reg[10]/CKbb#3
+ \mem_reg[10]/net376	VDD	pfet_01v8	L=1.5e-07	W=6.25e-07
M\mem_reg[10]/Mmp36	\mem_reg[10]/n20#8	\mem_reg[10]/CKb
+ \mem_reg[10]/net356	VDD	pfet_01v8	L=1.5e-07	W=6.25e-07
M\mem_reg[10]/Mmp12	\mem_reg[10]/Db	scan_en#71
+ \mem_reg[10]/net384	VDD	pfet_01v8	L=1.5e-07	W=6.25e-07
M\mem_reg[10]/Mmp11	\mem_reg[10]/net384	mem[10]#3	VDD#234
+ VDD	pfet_01v8	L=1.5e-07	W=6.25e-07
M\mem_reg[10]/Mmp35	\mem_reg[10]/net356	\mem_reg[10]/mout	VDD#229
+ VDD	pfet_01v8	L=1.5e-07	W=6.25e-07
M\mem_reg[10]/Mmp13	\mem_reg[10]/net392	mem[8]#3	VDD#231
+ VDD	pfet_01v8	L=1.5e-07	W=6.25e-07
M\mem_reg[10]/Mmp40	\mem_reg[10]/n30#8	\mem_reg[10]/CKb#5
+ \mem_reg[10]/mout#8	VDD	pfet_01v8	L=1.5e-07	W=6.25e-07
M\mem_reg[10]/Mmp45	\mem_reg[10]/qbint#22	\mem_reg[10]/n30	VDD#223
+ VDD	pfet_01v8	L=1.5e-07	W=6.25e-07
M\mem_reg[10]/Mmp10	\mem_reg[10]/SEb#9	scan_en#69	VDD#234
+ VDD	pfet_01v8	L=1.5e-07	W=6.25e-07
M\mem_reg[10]/Mmp56	\mem_reg[10]/net367#8	\mem_reg[10]/qbint#3	VDD#223
+ VDD	pfet_01v8	L=1.5e-07	W=6.25e-07
M\mem_reg[10]/Mmp21	\mem_reg[10]/CKbb#17	\mem_reg[10]/CKb#3	VDD#229
+ VDD	pfet_01v8	L=1.5e-07	W=6.25e-07
M\mem_reg[10]/Mmp20	\mem_reg[10]/CKb#22	scan_clk#35	VDD#231
+ VDD	pfet_01v8	L=1.5e-07	W=6.25e-07
M\mem_reg[10]/Mmp57	UNCONNECTED15	\mem_reg[10]/net367	VDD#222
+ VDD	pfet_01v8	L=1.5e-07	W=1.13e-06
M\mem_reg[10]/Mmp25	\mem_reg[10]/n20#8	\mem_reg[10]/CKbb
+ \mem_reg[10]/Db#5	VDD	pfet_01v8	L=1.5e-07	W=6.25e-07
M\mem_reg[10]/Mmp55	mem[10]#28	\mem_reg[10]/qbint#5	VDD#222
+ VDD	pfet_01v8	L=1.5e-07	W=1.13e-06
M\mem_reg[0]/Mmp50	\mem_reg[0]/net376	\mem_reg[0]/qbint	VDD#392
+ VDD	pfet_01v8	L=1.5e-07	W=6.25e-07
M\mem_reg[0]/Mmp30	\mem_reg[0]/mout#8	\mem_reg[0]/n20	VDD#393
+ VDD	pfet_01v8	L=1.5e-07	W=6.25e-07
M\mem_reg[0]/Mmp14	\mem_reg[0]/Db	\mem_reg[0]/SEb
+ \mem_reg[0]/net392	VDD	pfet_01v8	L=1.5e-07	W=6.25e-07
M\mem_reg[0]/Mmp51	\mem_reg[0]/n30#8	\mem_reg[0]/CKbb#3
+ \mem_reg[0]/net376	VDD	pfet_01v8	L=1.5e-07	W=6.25e-07
M\mem_reg[0]/Mmp36	\mem_reg[0]/n20#8	\mem_reg[0]/CKb
+ \mem_reg[0]/net356	VDD	pfet_01v8	L=1.5e-07	W=6.25e-07
M\mem_reg[0]/Mmp12	\mem_reg[0]/Db	scan_en#65	\mem_reg[0]/net384
+ VDD	pfet_01v8	L=1.5e-07	W=6.25e-07
M\mem_reg[0]/Mmp11	\mem_reg[0]/net384	mem[0]#3	VDD#396
+ VDD	pfet_01v8	L=1.5e-07	W=6.25e-07
M\mem_reg[0]/Mmp35	\mem_reg[0]/net356	\mem_reg[0]/mout	VDD#394
+ VDD	pfet_01v8	L=1.5e-07	W=6.25e-07
M\mem_reg[0]/Mmp13	\mem_reg[0]/net392	mem[13]#5	VDD#395
+ VDD	pfet_01v8	L=1.5e-07	W=6.25e-07
M\mem_reg[0]/Mmp40	\mem_reg[0]/n30#8	\mem_reg[0]/CKb#5
+ \mem_reg[0]/mout#8	VDD	pfet_01v8	L=1.5e-07	W=6.25e-07
M\mem_reg[0]/Mmp45	\mem_reg[0]/qbint#22	\mem_reg[0]/n30	VDD#391
+ VDD	pfet_01v8	L=1.5e-07	W=6.25e-07
M\mem_reg[0]/Mmp10	\mem_reg[0]/SEb#9	scan_en#61	VDD#396
+ VDD	pfet_01v8	L=1.5e-07	W=6.25e-07
M\mem_reg[0]/Mmp56	\mem_reg[0]/net367#8	\mem_reg[0]/qbint#3	VDD#391
+ VDD	pfet_01v8	L=1.5e-07	W=6.25e-07
M\mem_reg[0]/Mmp21	\mem_reg[0]/CKbb#17	\mem_reg[0]/CKb#3	VDD#394
+ VDD	pfet_01v8	L=1.5e-07	W=6.25e-07
M\mem_reg[0]/Mmp20	\mem_reg[0]/CKb#22	scan_clk#31	VDD#395
+ VDD	pfet_01v8	L=1.5e-07	W=6.25e-07
M\mem_reg[0]/Mmp57	UNCONNECTED9	\mem_reg[0]/net367	VDD#390
+ VDD	pfet_01v8	L=1.5e-07	W=1.13e-06
M\mem_reg[0]/Mmp25	\mem_reg[0]/n20#8	\mem_reg[0]/CKbb
+ \mem_reg[0]/Db#5	VDD	pfet_01v8	L=1.5e-07	W=6.25e-07
M\mem_reg[0]/Mmp55	mem[0]#28	\mem_reg[0]/qbint#5	VDD#390
+ VDD	pfet_01v8	L=1.5e-07	W=1.13e-06
M\mem_reg[2]/Mmp50	\mem_reg[2]/net376	\mem_reg[2]/qbint	VDD#281
+ VDD	pfet_01v8	L=1.5e-07	W=6.25e-07
M\mem_reg[2]/Mmp30	\mem_reg[2]/mout#11	\mem_reg[2]/n20	VDD#285
+ VDD	pfet_01v8	L=1.5e-07	W=6.25e-07
M\mem_reg[2]/Mmp14	\mem_reg[2]/Db#4	\mem_reg[2]/SEb
+ \mem_reg[2]/net392	VDD	pfet_01v8	L=1.5e-07	W=6.25e-07
M\mem_reg[2]/Mmp51	\mem_reg[2]/n30#11	\mem_reg[2]/CKbb#3
+ \mem_reg[2]/net376	VDD	pfet_01v8	L=1.5e-07	W=6.25e-07
M\mem_reg[2]/Mmp36	\mem_reg[2]/n20#11	\mem_reg[2]/CKb
+ \mem_reg[2]/net356	VDD	pfet_01v8	L=1.5e-07	W=6.25e-07
M\mem_reg[2]/Mmp12	\mem_reg[2]/Db#4	scan_en#67
+ \mem_reg[2]/net384	VDD	pfet_01v8	L=1.5e-07	W=6.25e-07
M\mem_reg[2]/Mmp11	\mem_reg[2]/net384	mem[2]#5	VDD#298
+ VDD	pfet_01v8	L=1.5e-07	W=6.25e-07
M\mem_reg[2]/Mmp35	\mem_reg[2]/net356	\mem_reg[2]/mout	VDD#289
+ VDD	pfet_01v8	L=1.5e-07	W=6.25e-07
M\mem_reg[2]/Mmp13	\mem_reg[2]/net392	mem[0]#5	VDD#297
+ VDD	pfet_01v8	L=1.5e-07	W=6.25e-07
M\mem_reg[2]/Mmp40	\mem_reg[2]/n30#11	\mem_reg[2]/CKb#5
+ \mem_reg[2]/mout#11	VDD	pfet_01v8	L=1.5e-07	W=6.25e-07
M\mem_reg[2]/Mmp45	\mem_reg[2]/qbint#23	\mem_reg[2]/n30	VDD#278
+ VDD	pfet_01v8	L=1.5e-07	W=6.25e-07
M\mem_reg[2]/Mmp10	\mem_reg[2]/SEb#12	scan_en#63	VDD#298
+ VDD	pfet_01v8	L=1.5e-07	W=6.25e-07
M\mem_reg[2]/Mmp56	\mem_reg[2]/net367#11	\mem_reg[2]/qbint#3	VDD#278
+ VDD	pfet_01v8	L=1.5e-07	W=6.25e-07
M\mem_reg[2]/Mmp21	\mem_reg[2]/CKbb#20	\mem_reg[2]/CKb#3	VDD#289
+ VDD	pfet_01v8	L=1.5e-07	W=6.25e-07
M\mem_reg[2]/Mmp20	\mem_reg[2]/CKb#25	scan_clk#33	VDD#297
+ VDD	pfet_01v8	L=1.5e-07	W=6.25e-07
M\mem_reg[2]/Mmp57	UNCONNECTED1#4	\mem_reg[2]/net367	VDD#274
+ VDD	pfet_01v8	L=1.5e-07	W=1.13e-06
M\mem_reg[2]/Mmp25	\mem_reg[2]/n20#11	\mem_reg[2]/CKbb
+ \mem_reg[2]/Db#8	VDD	pfet_01v8	L=1.5e-07	W=6.25e-07
M\mem_reg[2]/Mmp55	mem[2]#31	\mem_reg[2]/qbint#5	VDD#274
+ VDD	pfet_01v8	L=1.5e-07	W=1.13e-06
M\mem_reg[15]/Mmp50	\mem_reg[15]/net376	\mem_reg[15]/qbint	VDD#230
+ VDD	pfet_01v8	L=1.5e-07	W=6.25e-07
M\mem_reg[15]/Mmp30	\mem_reg[15]/mout#11	\mem_reg[15]/n20	VDD#232
+ VDD	pfet_01v8	L=1.5e-07	W=6.25e-07
M\mem_reg[15]/Mmp14	\mem_reg[15]/Db#4	\mem_reg[15]/SEb
+ \mem_reg[15]/net392	VDD	pfet_01v8	L=1.5e-07	W=6.25e-07
M\mem_reg[15]/Mmp51	\mem_reg[15]/n30#11	\mem_reg[15]/CKbb#3
+ \mem_reg[15]/net376	VDD	pfet_01v8	L=1.5e-07	W=6.25e-07
M\mem_reg[15]/Mmp36	\mem_reg[15]/n20#11	\mem_reg[15]/CKb
+ \mem_reg[15]/net356	VDD	pfet_01v8	L=1.5e-07	W=6.25e-07
M\mem_reg[15]/Mmp12	\mem_reg[15]/Db#4	scan_en#57
+ \mem_reg[15]/net384	VDD	pfet_01v8	L=1.5e-07	W=6.25e-07
M\mem_reg[15]/Mmp11	\mem_reg[15]/net384	mem[15]#5	VDD#238
+ VDD	pfet_01v8	L=1.5e-07	W=6.25e-07
M\mem_reg[15]/Mmp35	\mem_reg[15]/net356	\mem_reg[15]/mout	VDD#233
+ VDD	pfet_01v8	L=1.5e-07	W=6.25e-07
M\mem_reg[15]/Mmp13	\mem_reg[15]/net392	mem[7]#5	VDD#236
+ VDD	pfet_01v8	L=1.5e-07	W=6.25e-07
M\mem_reg[15]/Mmp40	\mem_reg[15]/n30#11	\mem_reg[15]/CKb#5
+ \mem_reg[15]/mout#11	VDD	pfet_01v8	L=1.5e-07	W=6.25e-07
M\mem_reg[15]/Mmp45	\mem_reg[15]/qbint#23	\mem_reg[15]/n30	VDD#228
+ VDD	pfet_01v8	L=1.5e-07	W=6.25e-07
M\mem_reg[15]/Mmp10	\mem_reg[15]/SEb#12	scan_en#51	VDD#238
+ VDD	pfet_01v8	L=1.5e-07	W=6.25e-07
M\mem_reg[15]/Mmp56	\mem_reg[15]/net367#11	\mem_reg[15]/qbint#3	VDD#228
+ VDD	pfet_01v8	L=1.5e-07	W=6.25e-07
M\mem_reg[15]/Mmp21	\mem_reg[15]/CKbb#20	\mem_reg[15]/CKb#3	VDD#233
+ VDD	pfet_01v8	L=1.5e-07	W=6.25e-07
M\mem_reg[15]/Mmp20	\mem_reg[15]/CKb#25	scan_clk#27	VDD#236
+ VDD	pfet_01v8	L=1.5e-07	W=6.25e-07
M\mem_reg[15]/Mmp57	UNCONNECTED7#4	\mem_reg[15]/net367	VDD#226
+ VDD	pfet_01v8	L=1.5e-07	W=1.13e-06
M\mem_reg[15]/Mmp25	\mem_reg[15]/n20#11	\mem_reg[15]/CKbb
+ \mem_reg[15]/Db#8	VDD	pfet_01v8	L=1.5e-07	W=6.25e-07
M\mem_reg[15]/Mmp55	mem[15]#31	\mem_reg[15]/qbint#5	VDD#226
+ VDD	pfet_01v8	L=1.5e-07	W=1.13e-06
mux_control_reg/Mmp50	mux_control_reg/net376	mux_control_reg/qbint	VDD#65
+ VDD	pfet_01v8	L=1.5e-07	W=6.25e-07
mux_control_reg/Mmp30	mux_control_reg/mout#8	mux_control_reg/n20	VDD#68
+ VDD	pfet_01v8	L=1.5e-07	W=6.25e-07
mux_control_reg/Mmp14	mux_control_reg/Db	mux_control_reg/SEb
+ mux_control_reg/net392	VDD	pfet_01v8	L=1.5e-07
+ W=6.25e-07
mux_control_reg/Mmp51	mux_control_reg/n30#8	mux_control_reg/CKbb#3
+ mux_control_reg/net376	VDD	pfet_01v8	L=1.5e-07
+ W=6.25e-07
mux_control_reg/Mmp36	mux_control_reg/n20#8	mux_control_reg/CKb
+ mux_control_reg/net356	VDD	pfet_01v8	L=1.5e-07
+ W=6.25e-07
mux_control_reg/Mmp12	mux_control_reg/Db	scan_en#59
+ mux_control_reg/net384	VDD	pfet_01v8	L=1.5e-07
+ W=6.25e-07
mux_control_reg/Mmp11	mux_control_reg/net384	FE_OFN1_scan_out_0#9	VDD#75
+ VDD	pfet_01v8	L=1.5e-07	W=6.25e-07
mux_control_reg/Mmp35	mux_control_reg/net356	mux_control_reg/mout	VDD#70
+ VDD	pfet_01v8	L=1.5e-07	W=6.25e-07
mux_control_reg/Mmp13	mux_control_reg/net392	mem[11]#5	VDD#72	VDD
+ pfet_01v8	L=1.5e-07	W=6.25e-07
mux_control_reg/Mmp40	mux_control_reg/n30#8	mux_control_reg/CKb#5
+ mux_control_reg/mout#8	VDD	pfet_01v8	L=1.5e-07
+ W=6.25e-07
mux_control_reg/Mmp45	mux_control_reg/qbint#22	mux_control_reg/n30
+ VDD#62	VDD	pfet_01v8	L=1.5e-07	W=6.25e-07
mux_control_reg/Mmp10	mux_control_reg/SEb#9	scan_en#53	VDD#75	VDD
+ pfet_01v8	L=1.5e-07	W=6.25e-07
mux_control_reg/Mmp56	mux_control_reg/net367#8	mux_control_reg/qbint#3
+ VDD#62	VDD	pfet_01v8	L=1.5e-07	W=6.25e-07
mux_control_reg/Mmp21	mux_control_reg/CKbb#17	mux_control_reg/CKb#3
+ VDD#70	VDD	pfet_01v8	L=1.5e-07	W=6.25e-07
mux_control_reg/Mmp20	mux_control_reg/CKb#22	scan_clk#29	VDD#72	VDD
+ pfet_01v8	L=1.5e-07	W=6.25e-07
mux_control_reg/Mmp57	UNCONNECTED2	mux_control_reg/net367	VDD#60	VDD
+ pfet_01v8	L=1.5e-07	W=1.13e-06
mux_control_reg/Mmp25	mux_control_reg/n20#8	mux_control_reg/CKbb
+ mux_control_reg/Db#5	VDD	pfet_01v8	L=1.5e-07	W=6.25e-07
mux_control_reg/Mmp55	FE_OFN1_scan_out_0#55	mux_control_reg/qbint#5
+ VDD#60	VDD	pfet_01v8	L=1.5e-07	W=1.13e-06
M\mem_reg[8]/Mmp50	\mem_reg[8]/net376	\mem_reg[8]/qbint	VDD#284
+ VDD	pfet_01v8	L=1.5e-07	W=6.25e-07
M\mem_reg[8]/Mmp30	\mem_reg[8]/mout#8	\mem_reg[8]/n20	VDD#288
+ VDD	pfet_01v8	L=1.5e-07	W=6.25e-07
M\mem_reg[8]/Mmp14	\mem_reg[8]/Db	\mem_reg[8]/SEb
+ \mem_reg[8]/net392	VDD	pfet_01v8	L=1.5e-07	W=6.25e-07
M\mem_reg[8]/Mmp51	\mem_reg[8]/n30#8	\mem_reg[8]/CKbb#3
+ \mem_reg[8]/net376	VDD	pfet_01v8	L=1.5e-07	W=6.25e-07
M\mem_reg[8]/Mmp36	\mem_reg[8]/n20#8	\mem_reg[8]/CKb
+ \mem_reg[8]/net356	VDD	pfet_01v8	L=1.5e-07	W=6.25e-07
M\mem_reg[8]/Mmp12	\mem_reg[8]/Db	scan_en#55	\mem_reg[8]/net384
+ VDD	pfet_01v8	L=1.5e-07	W=6.25e-07
M\mem_reg[8]/Mmp11	\mem_reg[8]/net384	mem[8]	VDD#300	VDD
+ pfet_01v8	L=1.5e-07	W=6.25e-07
M\mem_reg[8]/Mmp35	\mem_reg[8]/net356	\mem_reg[8]/mout	VDD#291
+ VDD	pfet_01v8	L=1.5e-07	W=6.25e-07
M\mem_reg[8]/Mmp13	\mem_reg[8]/net392	mem[2]#3	VDD#296
+ VDD	pfet_01v8	L=1.5e-07	W=6.25e-07
M\mem_reg[8]/Mmp40	\mem_reg[8]/n30#8	\mem_reg[8]/CKb#5
+ \mem_reg[8]/mout#8	VDD	pfet_01v8	L=1.5e-07	W=6.25e-07
M\mem_reg[8]/Mmp45	\mem_reg[8]/qbint#22	\mem_reg[8]/n30	VDD#280
+ VDD	pfet_01v8	L=1.5e-07	W=6.25e-07
M\mem_reg[8]/Mmp10	\mem_reg[8]/SEb#9	scan_en#49	VDD#300
+ VDD	pfet_01v8	L=1.5e-07	W=6.25e-07
M\mem_reg[8]/Mmp56	\mem_reg[8]/net367#8	\mem_reg[8]/qbint#3	VDD#280
+ VDD	pfet_01v8	L=1.5e-07	W=6.25e-07
M\mem_reg[8]/Mmp21	\mem_reg[8]/CKbb#17	\mem_reg[8]/CKb#3	VDD#291
+ VDD	pfet_01v8	L=1.5e-07	W=6.25e-07
M\mem_reg[8]/Mmp20	\mem_reg[8]/CKb#22	scan_clk#25	VDD#296
+ VDD	pfet_01v8	L=1.5e-07	W=6.25e-07
M\mem_reg[8]/Mmp57	UNCONNECTED14	\mem_reg[8]/net367	VDD#277
+ VDD	pfet_01v8	L=1.5e-07	W=1.13e-06
M\mem_reg[8]/Mmp25	\mem_reg[8]/n20#8	\mem_reg[8]/CKbb
+ \mem_reg[8]/Db#5	VDD	pfet_01v8	L=1.5e-07	W=6.25e-07
M\mem_reg[8]/Mmp55	mem[8]#26	\mem_reg[8]/qbint#5	VDD#277
+ VDD	pfet_01v8	L=1.5e-07	W=1.13e-06
Mq_reg_reg/Mmp50	q_reg_reg/net376	q_reg_reg/qbint	VDD#140
+ VDD	pfet_01v8	L=1.5e-07	W=6.25e-07
Mq_reg_reg/Mmp30	q_reg_reg/mout#11	q_reg_reg/n20	VDD#141
+ VDD	pfet_01v8	L=1.5e-07	W=6.25e-07
Mq_reg_reg/Mmp14	q_reg_reg/Db#4	q_reg_reg/SEb	q_reg_reg/net392
+ VDD	pfet_01v8	L=1.5e-07	W=6.25e-07
Mq_reg_reg/Mmp51	q_reg_reg/n30#11	q_reg_reg/CKbb#3
+ q_reg_reg/net376	VDD	pfet_01v8	L=1.5e-07	W=6.25e-07
Mq_reg_reg/Mmp36	q_reg_reg/n20#11	q_reg_reg/CKb
+ q_reg_reg/net356	VDD	pfet_01v8	L=1.5e-07	W=6.25e-07
Mq_reg_reg/Mmp12	q_reg_reg/Db#4	q_control#7	q_reg_reg/net384
+ VDD	pfet_01v8	L=1.5e-07	W=6.25e-07
Mq_reg_reg/Mmp11	q_reg_reg/net384	n_15	VDD#144	VDD
+ pfet_01v8	L=1.5e-07	W=6.25e-07
Mq_reg_reg/Mmp35	q_reg_reg/net356	q_reg_reg/mout	VDD#142
+ VDD	pfet_01v8	L=1.5e-07	W=6.25e-07
Mq_reg_reg/Mmp13	q_reg_reg/net392	x#1	VDD#143	VDD
+ pfet_01v8	L=1.5e-07	W=6.25e-07
Mq_reg_reg/Mmp40	q_reg_reg/n30#11	q_reg_reg/CKb#5
+ q_reg_reg/mout#11	VDD	pfet_01v8	L=1.5e-07	W=6.25e-07
Mq_reg_reg/Mmp45	q_reg_reg/qbint#23	q_reg_reg/n30	VDD#139
+ VDD	pfet_01v8	L=1.5e-07	W=6.25e-07
Mq_reg_reg/Mmp10	q_reg_reg/SEb#12	q_control#5	VDD#144
+ VDD	pfet_01v8	L=1.5e-07	W=6.25e-07
Mq_reg_reg/Mmp56	q_reg_reg/net367#11	q_reg_reg/qbint#3	VDD#139
+ VDD	pfet_01v8	L=1.5e-07	W=6.25e-07
Mq_reg_reg/Mmp21	q_reg_reg/CKbb#20	q_reg_reg/CKb#3	VDD#142
+ VDD	pfet_01v8	L=1.5e-07	W=6.25e-07
Mq_reg_reg/Mmp20	q_reg_reg/CKb#25	clk#1	VDD#143	VDD
+ pfet_01v8	L=1.5e-07	W=6.25e-07
Mq_reg_reg/Mmp57	UNCONNECTED#4	q_reg_reg/net367	VDD#138
+ VDD	pfet_01v8	L=1.5e-07	W=1.13e-06
Mq_reg_reg/Mmp25	q_reg_reg/n20#11	q_reg_reg/CKbb	q_reg_reg/Db#8
+ VDD	pfet_01v8	L=1.5e-07	W=6.25e-07
Mq_reg_reg/Mmp55	FE_OFN0_q#35	q_reg_reg/qbint#5	VDD#138
+ VDD	pfet_01v8	L=1.5e-07	W=1.13e-06
M\mem_reg[9]/Mmp50	\mem_reg[9]/net376	\mem_reg[9]/qbint	VDD#74
+ VDD	pfet_01v8	L=1.5e-07	W=6.25e-07
M\mem_reg[9]/Mmp30	\mem_reg[9]/mout#11	\mem_reg[9]/n20	VDD#76
+ VDD	pfet_01v8	L=1.5e-07	W=6.25e-07
M\mem_reg[9]/Mmp14	\mem_reg[9]/Db#4	\mem_reg[9]/SEb
+ \mem_reg[9]/net392	VDD	pfet_01v8	L=1.5e-07	W=6.25e-07
M\mem_reg[9]/Mmp51	\mem_reg[9]/n30#11	\mem_reg[9]/CKbb#3
+ \mem_reg[9]/net376	VDD	pfet_01v8	L=1.5e-07	W=6.25e-07
M\mem_reg[9]/Mmp36	\mem_reg[9]/n20#11	\mem_reg[9]/CKb
+ \mem_reg[9]/net356	VDD	pfet_01v8	L=1.5e-07	W=6.25e-07
M\mem_reg[9]/Mmp12	\mem_reg[9]/Db#4	scan_en#47
+ \mem_reg[9]/net384	VDD	pfet_01v8	L=1.5e-07	W=6.25e-07
M\mem_reg[9]/Mmp11	\mem_reg[9]/net384	mem[9]#5	VDD#83	VDD
+ pfet_01v8	L=1.5e-07	W=6.25e-07
M\mem_reg[9]/Mmp35	\mem_reg[9]/net356	\mem_reg[9]/mout	VDD#78
+ VDD	pfet_01v8	L=1.5e-07	W=6.25e-07
M\mem_reg[9]/Mmp13	\mem_reg[9]/net392	mem[10]	VDD#81	VDD
+ pfet_01v8	L=1.5e-07	W=6.25e-07
M\mem_reg[9]/Mmp40	\mem_reg[9]/n30#11	\mem_reg[9]/CKb#5
+ \mem_reg[9]/mout#11	VDD	pfet_01v8	L=1.5e-07	W=6.25e-07
M\mem_reg[9]/Mmp45	\mem_reg[9]/qbint#23	\mem_reg[9]/n30	VDD#73
+ VDD	pfet_01v8	L=1.5e-07	W=6.25e-07
M\mem_reg[9]/Mmp10	\mem_reg[9]/SEb#12	scan_en#45	VDD#83	VDD
+ pfet_01v8	L=1.5e-07	W=6.25e-07
M\mem_reg[9]/Mmp56	\mem_reg[9]/net367#11	\mem_reg[9]/qbint#3	VDD#73
+ VDD	pfet_01v8	L=1.5e-07	W=6.25e-07
M\mem_reg[9]/Mmp21	\mem_reg[9]/CKbb#20	\mem_reg[9]/CKb#3	VDD#78
+ VDD	pfet_01v8	L=1.5e-07	W=6.25e-07
M\mem_reg[9]/Mmp20	\mem_reg[9]/CKb#25	scan_clk#23	VDD#81	VDD
+ pfet_01v8	L=1.5e-07	W=6.25e-07
M\mem_reg[9]/Mmp57	UNCONNECTED3#4	\mem_reg[9]/net367	VDD#71	VDD
+ pfet_01v8	L=1.5e-07	W=1.13e-06
M\mem_reg[9]/Mmp25	\mem_reg[9]/n20#11	\mem_reg[9]/CKbb
+ \mem_reg[9]/Db#8	VDD	pfet_01v8	L=1.5e-07	W=6.25e-07
M\mem_reg[9]/Mmp55	mem[9]#31	\mem_reg[9]/qbint#5	VDD#71	VDD
+ pfet_01v8	L=1.5e-07	W=1.13e-06
M\mem_reg[13]/Mmp50	\mem_reg[13]/net376	\mem_reg[13]/qbint	VDD#399
+ VDD	pfet_01v8	L=1.5e-07	W=6.25e-07
M\mem_reg[13]/Mmp30	\mem_reg[13]/mout#8	\mem_reg[13]/n20	VDD#400
+ VDD	pfet_01v8	L=1.5e-07	W=6.25e-07
M\mem_reg[13]/Mmp14	\mem_reg[13]/Db	\mem_reg[13]/SEb
+ \mem_reg[13]/net392	VDD	pfet_01v8	L=1.5e-07	W=6.25e-07
M\mem_reg[13]/Mmp51	\mem_reg[13]/n30#8	\mem_reg[13]/CKbb#3
+ \mem_reg[13]/net376	VDD	pfet_01v8	L=1.5e-07	W=6.25e-07
M\mem_reg[13]/Mmp36	\mem_reg[13]/n20#8	\mem_reg[13]/CKb
+ \mem_reg[13]/net356	VDD	pfet_01v8	L=1.5e-07	W=6.25e-07
M\mem_reg[13]/Mmp12	\mem_reg[13]/Db	scan_en#43
+ \mem_reg[13]/net384	VDD	pfet_01v8	L=1.5e-07	W=6.25e-07
M\mem_reg[13]/Mmp11	\mem_reg[13]/net384	mem[13]	VDD#403
+ VDD	pfet_01v8	L=1.5e-07	W=6.25e-07
M\mem_reg[13]/Mmp35	\mem_reg[13]/net356	\mem_reg[13]/mout	VDD#401
+ VDD	pfet_01v8	L=1.5e-07	W=6.25e-07
M\mem_reg[13]/Mmp13	\mem_reg[13]/net392	mem[15]	VDD#402
+ VDD	pfet_01v8	L=1.5e-07	W=6.25e-07
M\mem_reg[13]/Mmp40	\mem_reg[13]/n30#8	\mem_reg[13]/CKb#5
+ \mem_reg[13]/mout#8	VDD	pfet_01v8	L=1.5e-07	W=6.25e-07
M\mem_reg[13]/Mmp45	\mem_reg[13]/qbint#22	\mem_reg[13]/n30	VDD#398
+ VDD	pfet_01v8	L=1.5e-07	W=6.25e-07
M\mem_reg[13]/Mmp10	\mem_reg[13]/SEb#9	scan_en#41	VDD#403
+ VDD	pfet_01v8	L=1.5e-07	W=6.25e-07
M\mem_reg[13]/Mmp56	\mem_reg[13]/net367#8	\mem_reg[13]/qbint#3	VDD#398
+ VDD	pfet_01v8	L=1.5e-07	W=6.25e-07
M\mem_reg[13]/Mmp21	\mem_reg[13]/CKbb#17	\mem_reg[13]/CKb#3	VDD#401
+ VDD	pfet_01v8	L=1.5e-07	W=6.25e-07
M\mem_reg[13]/Mmp20	\mem_reg[13]/CKb#22	scan_clk#21	VDD#402
+ VDD	pfet_01v8	L=1.5e-07	W=6.25e-07
M\mem_reg[13]/Mmp57	UNCONNECTED5	\mem_reg[13]/net367	VDD#397
+ VDD	pfet_01v8	L=1.5e-07	W=1.13e-06
M\mem_reg[13]/Mmp25	\mem_reg[13]/n20#8	\mem_reg[13]/CKbb
+ \mem_reg[13]/Db#5	VDD	pfet_01v8	L=1.5e-07	W=6.25e-07
M\mem_reg[13]/Mmp55	mem[13]#26	\mem_reg[13]/qbint#5	VDD#397
+ VDD	pfet_01v8	L=1.5e-07	W=1.13e-06
M\mem_reg[6]/Mmp50	\mem_reg[6]/net376	\mem_reg[6]/qbint	VDD#244
+ VDD	pfet_01v8	L=1.5e-07	W=6.25e-07
M\mem_reg[6]/Mmp30	\mem_reg[6]/mout#11	\mem_reg[6]/n20	VDD#246
+ VDD	pfet_01v8	L=1.5e-07	W=6.25e-07
M\mem_reg[6]/Mmp14	\mem_reg[6]/Db#4	\mem_reg[6]/SEb
+ \mem_reg[6]/net392	VDD	pfet_01v8	L=1.5e-07	W=6.25e-07
M\mem_reg[6]/Mmp51	\mem_reg[6]/n30#11	\mem_reg[6]/CKbb#3
+ \mem_reg[6]/net376	VDD	pfet_01v8	L=1.5e-07	W=6.25e-07
M\mem_reg[6]/Mmp36	\mem_reg[6]/n20#11	\mem_reg[6]/CKb
+ \mem_reg[6]/net356	VDD	pfet_01v8	L=1.5e-07	W=6.25e-07
M\mem_reg[6]/Mmp12	\mem_reg[6]/Db#4	scan_en#37
+ \mem_reg[6]/net384	VDD	pfet_01v8	L=1.5e-07	W=6.25e-07
M\mem_reg[6]/Mmp11	\mem_reg[6]/net384	mem[6]#3	VDD#251
+ VDD	pfet_01v8	L=1.5e-07	W=6.25e-07
M\mem_reg[6]/Mmp35	\mem_reg[6]/net356	\mem_reg[6]/mout	VDD#247
+ VDD	pfet_01v8	L=1.5e-07	W=6.25e-07
M\mem_reg[6]/Mmp13	\mem_reg[6]/net392	mem[4]#3	VDD#249
+ VDD	pfet_01v8	L=1.5e-07	W=6.25e-07
M\mem_reg[6]/Mmp40	\mem_reg[6]/n30#11	\mem_reg[6]/CKb#5
+ \mem_reg[6]/mout#11	VDD	pfet_01v8	L=1.5e-07	W=6.25e-07
M\mem_reg[6]/Mmp45	\mem_reg[6]/qbint#23	\mem_reg[6]/n30	VDD#243
+ VDD	pfet_01v8	L=1.5e-07	W=6.25e-07
M\mem_reg[6]/Mmp10	\mem_reg[6]/SEb#12	scan_en#33	VDD#251
+ VDD	pfet_01v8	L=1.5e-07	W=6.25e-07
M\mem_reg[6]/Mmp56	\mem_reg[6]/net367#11	\mem_reg[6]/qbint#3	VDD#243
+ VDD	pfet_01v8	L=1.5e-07	W=6.25e-07
M\mem_reg[6]/Mmp21	\mem_reg[6]/CKbb#20	\mem_reg[6]/CKb#3	VDD#247
+ VDD	pfet_01v8	L=1.5e-07	W=6.25e-07
M\mem_reg[6]/Mmp20	\mem_reg[6]/CKb#25	scan_clk#17	VDD#249
+ VDD	pfet_01v8	L=1.5e-07	W=6.25e-07
M\mem_reg[6]/Mmp57	UNCONNECTED12#4	\mem_reg[6]/net367	VDD#240
+ VDD	pfet_01v8	L=1.5e-07	W=1.13e-06
M\mem_reg[6]/Mmp25	\mem_reg[6]/n20#11	\mem_reg[6]/CKbb
+ \mem_reg[6]/Db#8	VDD	pfet_01v8	L=1.5e-07	W=6.25e-07
M\mem_reg[6]/Mmp55	mem[6]#31	\mem_reg[6]/qbint#5	VDD#240
+ VDD	pfet_01v8	L=1.5e-07	W=1.13e-06
M\mem_reg[11]/Mmp50	\mem_reg[11]/net376	\mem_reg[11]/qbint	VDD#80
+ VDD	pfet_01v8	L=1.5e-07	W=6.25e-07
M\mem_reg[11]/Mmp30	\mem_reg[11]/mout#8	\mem_reg[11]/n20	VDD#82
+ VDD	pfet_01v8	L=1.5e-07	W=6.25e-07
M\mem_reg[11]/Mmp14	\mem_reg[11]/Db	\mem_reg[11]/SEb
+ \mem_reg[11]/net392	VDD	pfet_01v8	L=1.5e-07	W=6.25e-07
M\mem_reg[11]/Mmp51	\mem_reg[11]/n30#8	\mem_reg[11]/CKbb#3
+ \mem_reg[11]/net376	VDD	pfet_01v8	L=1.5e-07	W=6.25e-07
M\mem_reg[11]/Mmp36	\mem_reg[11]/n20#8	\mem_reg[11]/CKb
+ \mem_reg[11]/net356	VDD	pfet_01v8	L=1.5e-07	W=6.25e-07
M\mem_reg[11]/Mmp12	\mem_reg[11]/Db	scan_en#39
+ \mem_reg[11]/net384	VDD	pfet_01v8	L=1.5e-07	W=6.25e-07
M\mem_reg[11]/Mmp11	\mem_reg[11]/net384	mem[11]	VDD#87	VDD
+ pfet_01v8	L=1.5e-07	W=6.25e-07
M\mem_reg[11]/Mmp35	\mem_reg[11]/net356	\mem_reg[11]/mout	VDD#84
+ VDD	pfet_01v8	L=1.5e-07	W=6.25e-07
M\mem_reg[11]/Mmp13	\mem_reg[11]/net392	mem[9]	VDD#86	VDD
+ pfet_01v8	L=1.5e-07	W=6.25e-07
M\mem_reg[11]/Mmp40	\mem_reg[11]/n30#8	\mem_reg[11]/CKb#5
+ \mem_reg[11]/mout#8	VDD	pfet_01v8	L=1.5e-07	W=6.25e-07
M\mem_reg[11]/Mmp45	\mem_reg[11]/qbint#22	\mem_reg[11]/n30	VDD#79
+ VDD	pfet_01v8	L=1.5e-07	W=6.25e-07
M\mem_reg[11]/Mmp10	\mem_reg[11]/SEb#9	scan_en#35	VDD#87	VDD
+ pfet_01v8	L=1.5e-07	W=6.25e-07
M\mem_reg[11]/Mmp56	\mem_reg[11]/net367#8	\mem_reg[11]/qbint#3	VDD#79
+ VDD	pfet_01v8	L=1.5e-07	W=6.25e-07
M\mem_reg[11]/Mmp21	\mem_reg[11]/CKbb#17	\mem_reg[11]/CKb#3	VDD#84
+ VDD	pfet_01v8	L=1.5e-07	W=6.25e-07
M\mem_reg[11]/Mmp20	\mem_reg[11]/CKb#22	scan_clk#19	VDD#86	VDD
+ pfet_01v8	L=1.5e-07	W=6.25e-07
M\mem_reg[11]/Mmp57	UNCONNECTED16	\mem_reg[11]/net367	VDD#77	VDD
+ pfet_01v8	L=1.5e-07	W=1.13e-06
M\mem_reg[11]/Mmp25	\mem_reg[11]/n20#8	\mem_reg[11]/CKbb
+ \mem_reg[11]/Db#5	VDD	pfet_01v8	L=1.5e-07	W=6.25e-07
M\mem_reg[11]/Mmp55	mem[11]#26	\mem_reg[11]/qbint#5	VDD#77	VDD
+ pfet_01v8	L=1.5e-07	W=1.13e-06
Mq_control_reg/Mmp50	q_control_reg/net376	q_control_reg/qbint	VDD#147
+ VDD	pfet_01v8	L=1.5e-07	W=6.25e-07
Mq_control_reg/Mmp30	q_control_reg/mout#11	q_control_reg/n20	VDD#148
+ VDD	pfet_01v8	L=1.5e-07	W=6.25e-07
Mq_control_reg/Mmp14	q_control_reg/Db#4	q_control_reg/SEb
+ q_control_reg/net392	VDD	pfet_01v8	L=1.5e-07	W=6.25e-07
Mq_control_reg/Mmp51	q_control_reg/n30#11	q_control_reg/CKbb#3
+ q_control_reg/net376	VDD	pfet_01v8	L=1.5e-07	W=6.25e-07
Mq_control_reg/Mmp36	q_control_reg/n20#11	q_control_reg/CKb
+ q_control_reg/net356	VDD	pfet_01v8	L=1.5e-07	W=6.25e-07
Mq_control_reg/Mmp12	q_control_reg/Db#4	scan_en#31
+ q_control_reg/net384	VDD	pfet_01v8	L=1.5e-07	W=6.25e-07
Mq_control_reg/Mmp11	q_control_reg/net384	q_control#3	VDD#151
+ VDD	pfet_01v8	L=1.5e-07	W=6.25e-07
Mq_control_reg/Mmp35	q_control_reg/net356	q_control_reg/mout	VDD#149
+ VDD	pfet_01v8	L=1.5e-07	W=6.25e-07
Mq_control_reg/Mmp13	q_control_reg/net392	scan_in[0]#1	VDD#150
+ VDD	pfet_01v8	L=1.5e-07	W=6.25e-07
Mq_control_reg/Mmp40	q_control_reg/n30#11	q_control_reg/CKb#5
+ q_control_reg/mout#11	VDD	pfet_01v8	L=1.5e-07	W=6.25e-07
Mq_control_reg/Mmp45	q_control_reg/qbint#23	q_control_reg/n30	VDD#146
+ VDD	pfet_01v8	L=1.5e-07	W=6.25e-07
Mq_control_reg/Mmp10	q_control_reg/SEb#12	scan_en#29	VDD#151
+ VDD	pfet_01v8	L=1.5e-07	W=6.25e-07
Mq_control_reg/Mmp56	q_control_reg/net367#11	q_control_reg/qbint#3
+ VDD#146	VDD	pfet_01v8	L=1.5e-07	W=6.25e-07
Mq_control_reg/Mmp21	q_control_reg/CKbb#20	q_control_reg/CKb#3	VDD#149
+ VDD	pfet_01v8	L=1.5e-07	W=6.25e-07
Mq_control_reg/Mmp20	q_control_reg/CKb#25	scan_clk#15	VDD#150
+ VDD	pfet_01v8	L=1.5e-07	W=6.25e-07
Mq_control_reg/Mmp57	UNCONNECTED11#4	q_control_reg/net367	VDD#145
+ VDD	pfet_01v8	L=1.5e-07	W=1.13e-06
Mq_control_reg/Mmp25	q_control_reg/n20#11	q_control_reg/CKbb
+ q_control_reg/Db#8	VDD	pfet_01v8	L=1.5e-07	W=6.25e-07
Mq_control_reg/Mmp55	q_control#36	q_control_reg/qbint#5	VDD#145
+ VDD	pfet_01v8	L=1.5e-07	W=1.13e-06
M\mem_reg[5]/Mmp50	\mem_reg[5]/net376	\mem_reg[5]/qbint	VDD#332
+ VDD	pfet_01v8	L=1.5e-07	W=6.25e-07
M\mem_reg[5]/Mmp30	\mem_reg[5]/mout#11	\mem_reg[5]/n20	VDD#336
+ VDD	pfet_01v8	L=1.5e-07	W=6.25e-07
M\mem_reg[5]/Mmp14	\mem_reg[5]/Db#4	\mem_reg[5]/SEb
+ \mem_reg[5]/net392	VDD	pfet_01v8	L=1.5e-07	W=6.25e-07
M\mem_reg[5]/Mmp51	\mem_reg[5]/n30#11	\mem_reg[5]/CKbb#3
+ \mem_reg[5]/net376	VDD	pfet_01v8	L=1.5e-07	W=6.25e-07
M\mem_reg[5]/Mmp36	\mem_reg[5]/n20#11	\mem_reg[5]/CKb
+ \mem_reg[5]/net356	VDD	pfet_01v8	L=1.5e-07	W=6.25e-07
M\mem_reg[5]/Mmp12	\mem_reg[5]/Db#4	scan_en#27
+ \mem_reg[5]/net384	VDD	pfet_01v8	L=1.5e-07	W=6.25e-07
M\mem_reg[5]/Mmp11	\mem_reg[5]/net384	mem[5]	VDD#350	VDD
+ pfet_01v8	L=1.5e-07	W=6.25e-07
M\mem_reg[5]/Mmp35	\mem_reg[5]/net356	\mem_reg[5]/mout	VDD#340
+ VDD	pfet_01v8	L=1.5e-07	W=6.25e-07
M\mem_reg[5]/Mmp13	\mem_reg[5]/net392	mem[14]#3	VDD#349
+ VDD	pfet_01v8	L=1.5e-07	W=6.25e-07
M\mem_reg[5]/Mmp40	\mem_reg[5]/n30#11	\mem_reg[5]/CKb#5
+ \mem_reg[5]/mout#11	VDD	pfet_01v8	L=1.5e-07	W=6.25e-07
M\mem_reg[5]/Mmp45	\mem_reg[5]/qbint#23	\mem_reg[5]/n30	VDD#328
+ VDD	pfet_01v8	L=1.5e-07	W=6.25e-07
M\mem_reg[5]/Mmp10	\mem_reg[5]/SEb#12	scan_en#23	VDD#350
+ VDD	pfet_01v8	L=1.5e-07	W=6.25e-07
M\mem_reg[5]/Mmp56	\mem_reg[5]/net367#11	\mem_reg[5]/qbint#3	VDD#328
+ VDD	pfet_01v8	L=1.5e-07	W=6.25e-07
M\mem_reg[5]/Mmp21	\mem_reg[5]/CKbb#20	\mem_reg[5]/CKb#3	VDD#340
+ VDD	pfet_01v8	L=1.5e-07	W=6.25e-07
M\mem_reg[5]/Mmp20	\mem_reg[5]/CKb#25	scan_clk#13	VDD#349
+ VDD	pfet_01v8	L=1.5e-07	W=6.25e-07
M\mem_reg[5]/Mmp57	UNCONNECTED0#4	\mem_reg[5]/net367	VDD#323
+ VDD	pfet_01v8	L=1.5e-07	W=1.13e-06
M\mem_reg[5]/Mmp25	\mem_reg[5]/n20#11	\mem_reg[5]/CKbb
+ \mem_reg[5]/Db#8	VDD	pfet_01v8	L=1.5e-07	W=6.25e-07
M\mem_reg[5]/Mmp55	mem[5]#29	\mem_reg[5]/qbint#5	VDD#323
+ VDD	pfet_01v8	L=1.5e-07	W=1.13e-06
M\mem_reg[7]/Mmp50	\mem_reg[7]/net376	\mem_reg[7]/qbint	VDD#406
+ VDD	pfet_01v8	L=1.5e-07	W=6.25e-07
M\mem_reg[7]/Mmp30	\mem_reg[7]/mout#8	\mem_reg[7]/n20	VDD#407
+ VDD	pfet_01v8	L=1.5e-07	W=6.25e-07
M\mem_reg[7]/Mmp14	\mem_reg[7]/Db	\mem_reg[7]/SEb
+ \mem_reg[7]/net392	VDD	pfet_01v8	L=1.5e-07	W=6.25e-07
M\mem_reg[7]/Mmp51	\mem_reg[7]/n30#8	\mem_reg[7]/CKbb#3
+ \mem_reg[7]/net376	VDD	pfet_01v8	L=1.5e-07	W=6.25e-07
M\mem_reg[7]/Mmp36	\mem_reg[7]/n20#8	\mem_reg[7]/CKb
+ \mem_reg[7]/net356	VDD	pfet_01v8	L=1.5e-07	W=6.25e-07
M\mem_reg[7]/Mmp12	\mem_reg[7]/Db	scan_en#25	\mem_reg[7]/net384
+ VDD	pfet_01v8	L=1.5e-07	W=6.25e-07
M\mem_reg[7]/Mmp11	\mem_reg[7]/net384	mem[7]	VDD#410	VDD
+ pfet_01v8	L=1.5e-07	W=6.25e-07
M\mem_reg[7]/Mmp35	\mem_reg[7]/net356	\mem_reg[7]/mout	VDD#408
+ VDD	pfet_01v8	L=1.5e-07	W=6.25e-07
M\mem_reg[7]/Mmp13	\mem_reg[7]/net392	mem[5]#3	VDD#409
+ VDD	pfet_01v8	L=1.5e-07	W=6.25e-07
M\mem_reg[7]/Mmp40	\mem_reg[7]/n30#8	\mem_reg[7]/CKb#5
+ \mem_reg[7]/mout#8	VDD	pfet_01v8	L=1.5e-07	W=6.25e-07
M\mem_reg[7]/Mmp45	\mem_reg[7]/qbint#22	\mem_reg[7]/n30	VDD#405
+ VDD	pfet_01v8	L=1.5e-07	W=6.25e-07
M\mem_reg[7]/Mmp10	\mem_reg[7]/SEb#9	scan_en#21	VDD#410
+ VDD	pfet_01v8	L=1.5e-07	W=6.25e-07
M\mem_reg[7]/Mmp56	\mem_reg[7]/net367#8	\mem_reg[7]/qbint#3	VDD#405
+ VDD	pfet_01v8	L=1.5e-07	W=6.25e-07
M\mem_reg[7]/Mmp21	\mem_reg[7]/CKbb#17	\mem_reg[7]/CKb#3	VDD#408
+ VDD	pfet_01v8	L=1.5e-07	W=6.25e-07
M\mem_reg[7]/Mmp20	\mem_reg[7]/CKb#22	scan_clk#11	VDD#409
+ VDD	pfet_01v8	L=1.5e-07	W=6.25e-07
M\mem_reg[7]/Mmp57	UNCONNECTED13	\mem_reg[7]/net367	VDD#404
+ VDD	pfet_01v8	L=1.5e-07	W=1.13e-06
M\mem_reg[7]/Mmp25	\mem_reg[7]/n20#8	\mem_reg[7]/CKbb
+ \mem_reg[7]/Db#5	VDD	pfet_01v8	L=1.5e-07	W=6.25e-07
M\mem_reg[7]/Mmp55	mem[7]#24	\mem_reg[7]/qbint#5	VDD#404
+ VDD	pfet_01v8	L=1.5e-07	W=1.13e-06
M\mem_reg[14]/Mmp50	\mem_reg[14]/net376	\mem_reg[14]/qbint	VDD#335
+ VDD	pfet_01v8	L=1.5e-07	W=6.25e-07
M\mem_reg[14]/Mmp30	\mem_reg[14]/mout#8	\mem_reg[14]/n20	VDD#339
+ VDD	pfet_01v8	L=1.5e-07	W=6.25e-07
M\mem_reg[14]/Mmp14	\mem_reg[14]/Db	\mem_reg[14]/SEb
+ \mem_reg[14]/net392	VDD	pfet_01v8	L=1.5e-07	W=6.25e-07
M\mem_reg[14]/Mmp51	\mem_reg[14]/n30#8	\mem_reg[14]/CKbb#3
+ \mem_reg[14]/net376	VDD	pfet_01v8	L=1.5e-07	W=6.25e-07
M\mem_reg[14]/Mmp36	\mem_reg[14]/n20#8	\mem_reg[14]/CKb
+ \mem_reg[14]/net356	VDD	pfet_01v8	L=1.5e-07	W=6.25e-07
M\mem_reg[14]/Mmp12	\mem_reg[14]/Db	scan_en#19
+ \mem_reg[14]/net384	VDD	pfet_01v8	L=1.5e-07	W=6.25e-07
M\mem_reg[14]/Mmp11	\mem_reg[14]/net384	mem[14]	VDD#352
+ VDD	pfet_01v8	L=1.5e-07	W=6.25e-07
M\mem_reg[14]/Mmp35	\mem_reg[14]/net356	\mem_reg[14]/mout	VDD#342
+ VDD	pfet_01v8	L=1.5e-07	W=6.25e-07
M\mem_reg[14]/Mmp13	\mem_reg[14]/net392	mem[12]#3	VDD#348
+ VDD	pfet_01v8	L=1.5e-07	W=6.25e-07
[...]
C3149	VDD#402	VSS	1.32477e-16
C3150	VDD#148	VSS	1.30808e-16
C3151	g497__8428/net122#4	VSS	1.96756e-16
C3152	g520__5122/n0#11	VSS	1.0925e-16
C3153	g498__5526/net118#6	VSS	1.65883e-16
C3154	g522__2802/net89#5	VSS	2.18153e-19
C3155	\mem_reg[6]/n20#11	VSS	1.09816e-16
C3156	\mem_reg[11]/n20#8	VSS	1.42647e-19
C3157	q_control_reg/CKbb#20	VSS	9.10558e-17
C3158	VDD#248	VSS	2.15565e-16
C3159	n_9#10	VSS	1.66972e-18
C3160	n_3#11	VSS	1.88538e-16
C3161	\mem_reg[6]/Db#8	VSS	9.60628e-17
C3162	VDD#149	VSS	1.52282e-16
C3163	g497__8428/net122#2	VSS	1.36204e-16
C3164	VDD#322	VSS	1.25488e-16
C3165	g498__5526/net118#4	VSS	1.65759e-16
C3166	g522__2802/net89#3	VSS	1.16665e-18
C3167	\mem_reg[6]/CKb#25	VSS	9.03357e-17
C3168	g520__5122/S0b#11	VSS	8.66759e-17
C3169	VDD#403	VSS	1.32481e-16
C3170	VDD#85	VSS	2.17018e-16
C3171	g498__5526/net122#6	VSS	1.85561e-16
C3172	VDD#249	VSS	1.36859e-16
C3173	VDD#86	VSS	1.38896e-16
C3174	q_control_reg/n20#11	VSS	1.10725e-16
C3175	g498__5526/net118#2	VSS	2.02163e-16
C3176	q_control_reg/Db#8	VSS	9.7335e-17
C3177	g521__1617/net89#6	VSS	1.68537e-16
C3178	UNCONNECTED0#4	VSS	1.2366e-16
C3179	g498__5526/net122#4	VSS	2.08444e-16
C3180	\mem_reg[6]/Db#4	VSS	1.10525e-16
C3181	n_4#10	VSS	1.89071e-16
C3182	q_control_reg/CKb#25	VSS	9.79091e-17
C3183	VDD#323	VSS	2.00388e-16
C3184	n_7#31	VSS	3.49325e-19
C3185	VDD#320	VSS	2.16903e-16
C3186	g521__1617/net89#4	VSS	1.90035e-16
C3187	VDD#150	VSS	1.45092e-16
C3188	mem[5]#29	VSS	1.46831e-16
C3189	VDD#404	VSS	1.98197e-16
C3190	g498__5526/net122#2	VSS	1.4961e-16
C3191	VDD#251	VSS	1.39982e-16
C3192	VDD#250	VSS	2.19432e-16
C3193	VDD#87	VSS	1.41988e-16
C3194	VDD#88	VSS	1.73325e-16
C3195	\mem_reg[6]/SEb#12	VSS	7.80733e-17
C3196	g521__1617/net89#2	VSS	1.2372e-16
C3197	q_control_reg/Db#4	VSS	1.1031e-16
C3198	VDD#328	VSS	1.1595e-16
C3199	\mem_reg[5]/net367#11	VSS	1.19404e-16
C3200	VDD#405	VSS	1.06163e-16
C3201	VDD#327	VSS	2.12521e-16
C3202	UNCONNECTED4#4	VSS	1.23176e-16
C3203	UNCONNECTED10#4	VSS	1.1376e-16
C3204	VDD#151	VSS	1.39208e-16
C3205	VDD#253	VSS	2.0741e-16
C3206	VDD#252	VSS	2.08469e-16
C3207	VDD#90	VSS	1.9729e-16
C3208	VDD#89	VSS	2.00858e-16
C3209	VDD#332	VSS	1.00622e-16
C3210	q_control_reg/SEb#12	VSS	8.37935e-17
C3211	mem[12]#29	VSS	1.46211e-16
C3212	mem[1]#29	VSS	1.47512e-16
C3213	VDD#406	VSS	1.00893e-16
C3214	\mem_reg[14]/qbint#22	VSS	2.3252e-20
C3215	VDD#152	VSS	1.58272e-16
C3216	\mem_reg[5]/n30#11	VSS	1.09594e-16
C3217	VDD#331	VSS	1.11196e-16
C3218	scan_out[0]#31	VSS	3.62973e-19
C3219	\mem_reg[5]/mout#11	VSS	1.089e-16
C3220	\mem_reg[7]/n30#8	VSS	2.15999e-19
C3221	VDD#255	VSS	1.11632e-16
C3222	VDD#254	VSS	1.15738e-16
C3223	VDD#92	VSS	1.15802e-16
C3224	VDD#91	VSS	1.16335e-16
C3225	VDD#163	VSS	2.09443e-16
C3226	VDD#336	VSS	1.30744e-16
C3227	\mem_reg[7]/mout#8	VSS	2.05056e-19
C3228	\mem_reg[12]/net367#11	VSS	1.17695e-16
C3229	\mem_reg[1]/net367#11	VSS	1.17965e-16
C3230	\mem_reg[3]/net367#8	VSS	1.33744e-19
C3231	VDD#335	VSS	1.02852e-16
C3232	scan_out[0]#27	VSS	2.38899e-19
C3233	VDD#407	VSS	1.33126e-16
C3234	\mem_reg[5]/CKbb#20	VSS	8.87036e-17
C3235	VDD#257	VSS	1.01377e-16
C3236	VDD#256	VSS	1.08308e-16
C3237	VDD#94	VSS	1.0621e-16
C3238	VDD#93	VSS	1.06283e-16
C3239	VDD#164	VSS	2.11162e-16
C3240	VDD#340	VSS	1.46759e-16
C3241	scan_out[0]#23	VSS	1.15129e-19
C3242	VDD#408	VSS	1.49584e-16
C3243	\mem_reg[12]/n30#11	VSS	1.09659e-16
C3244	\mem_reg[4]/n30#8	VSS	9.09923e-19
C3245	\mem_reg[1]/n30#11	VSS	1.12531e-16
C3246	\mem_reg[3]/n30#8	VSS	3.36961e-19
C3247	VDD#165	VSS	2.1152e-16
C3248	\mem_reg[5]/n20#11	VSS	1.09815e-16
C3249	VDD#339	VSS	1.35669e-16
C3250	\mem_reg[12]/mout#11	VSS	1.11045e-16
C3251	\mem_reg[4]/mout#8	VSS	9.09923e-19
C3252	\mem_reg[1]/mout#11	VSS	1.13958e-16
C3253	\mem_reg[3]/mout#8	VSS	4.46454e-19
C3254	scan_out[0]#19	VSS	1.15129e-19
C3255	\mem_reg[5]/Db#8	VSS	9.57241e-17
C3256	VDD#259	VSS	1.33927e-16
C3257	VDD#258	VSS	1.35596e-16
C3258	VDD#96	VSS	1.33058e-16
C3259	VDD#95	VSS	1.36412e-16
C3260	VDD#166	VSS	2.11345e-16
C3261	\mem_reg[5]/CKb#25	VSS	9.04207e-17
C3262	VDD#342	VSS	1.49399e-16
C3263	\mem_reg[12]/CKbb#20	VSS	8.76838e-17
C3264	\mem_reg[4]/CKbb#17	VSS	3.28134e-19
C3265	\mem_reg[1]/CKbb#20	VSS	8.93408e-17
C3266	scan_out[0]#15	VSS	1.15129e-19
C3267	VDD#349	VSS	1.37704e-16
C3268	VDD#261	VSS	1.54251e-16
C3269	VDD#260	VSS	1.54979e-16
C3270	VDD#98	VSS	1.52132e-16
C3271	VDD#97	VSS	1.46833e-16
C3272	VDD#167	VSS	2.12413e-16
C3273	VDD#409	VSS	1.33771e-16
C3274	\mem_reg[14]/n20#8	VSS	6.38193e-20
C3275	scan_out[0]#11	VSS	1.15129e-19
C3276	\mem_reg[5]/Db#4	VSS	1.09229e-16
C3277	\mem_reg[12]/n20#11	VSS	1.09919e-16
C3278	\mem_reg[4]/n20#8	VSS	9.34521e-19
C3279	\mem_reg[1]/n20#11	VSS	1.10069e-16
C3280	\mem_reg[3]/n20#8	VSS	2.58751e-19
C3281	VDD#168	VSS	2.07237e-16
C3282	\mem_reg[12]/Db#8	VSS	9.60418e-17
C3283	\mem_reg[4]/Db#5	VSS	8.17292e-19
C3284	\mem_reg[1]/Db#8	VSS	9.65317e-17
C3285	\mem_reg[3]/Db#5	VSS	3.16919e-20
C3286	VDD#350	VSS	1.4084e-16
C3287	VDD#348	VSS	1.31232e-16
C3288	VDD#169	VSS	1.98268e-16
C3289	\mem_reg[12]/CKb#25	VSS	9.47225e-17
C3290	\mem_reg[1]/CKb#25	VSS	9.37411e-17
C3291	\mem_reg[5]/SEb#12	VSS	6.31058e-17
C3292	VDD#410	VSS	1.33497e-16
C3293	VDD#263	VSS	1.39726e-16
C3294	VDD#262	VSS	1.42392e-16
C3295	VDD#100	VSS	1.38465e-16
C3296	VDD#99	VSS	1.40917e-16
C3297	VDD#170	VSS	2.11006e-16
C3298	\mem_reg[12]/Db#4	VSS	1.09309e-16
C3299	\mem_reg[1]/Db#4	VSS	1.09309e-16
C3300	FE_OFC1_scan_out_0/n0#120	VSS	9.01039e-19
C3301	VDD#352	VSS	1.36201e-16
C3302	VDD#171	VSS	2.08389e-16
C3303	VDD#265	VSS	1.40626e-16
C3304	VDD#264	VSS	1.43828e-16
C3305	VDD#102	VSS	1.39464e-16
C3306	VDD#101	VSS	1.33877e-16
C3307	FE_OFC1_scan_out_0/n0#116	VSS	1.46009e-19
C3308	\mem_reg[12]/SEb#12	VSS	8.08048e-17
C3309	\mem_reg[4]/SEb#9	VSS	6.47236e-18
C3310	\mem_reg[1]/SEb#12	VSS	8.03457e-17
C3311	\mem_reg[3]/SEb#9	VSS	6.53225e-18
C3312	VDD#162	VSS	1.09719e-16
C3313	VDD#357	VSS	1.40746e-16
C3314	VDD#271	VSS	2.08417e-16
C3315	VDD#175	VSS	9.73532e-17
C3316	VDD#4	VSS	1.59092e-16
C3317	VDD#107	VSS	2.2599e-17
C3318	UNCONNECTED15#4	VSS	7.70106e-17
C3319	mux#6	VSS	1.11562e-16
C3320	mem[10]#31	VSS	1.13543e-16
C3321	mux#2	VSS	1.39982e-16
C3322	UNCONNECTED9#4	VSS	7.76964e-17
C3323	\mem_reg[10]/qbint#29	VSS	5.23758e-17
C3324	n_5#11	VSS	1.47156e-16
C3325	g494__5107/n0#11	VSS	8.18237e-17
C3326	q#21	VSS	2.24547e-18
C3327	n_12#30	VSS	1.05923e-20
C3328	mem[0]#31	VSS	1.11543e-16
C3329	\mem_reg[10]/net367#11	VSS	1.1155e-16
C3330	g493__2398/n0#31	VSS	1.0981e-16
C3331	\mem_reg[0]/qbint#29	VSS	5.06365e-17
C3332	\mem_reg[2]/qbint#29	VSS	5.05512e-17
C3333	g494__5107/S0b#11	VSS	5.44007e-17
C3334	UNCONNECTED2#4	VSS	9.38814e-17
C3335	\mem_reg[0]/net367#11	VSS	1.10075e-16
C3336	\mem_reg[10]/n30#11	VSS	8.84381e-17
C3337	UNCONNECTED14#4	VSS	9.27222e-17
C3338	g493__2398/S0b#9	VSS	4.83694e-19
C3339	\mem_reg[10]/mout#11	VSS	8.99144e-17
C3340	FE_OFN1_scan_out_0#58	VSS	1.12606e-16
C3341	mem[8]#29	VSS	1.13903e-16
C3342	\mem_reg[15]/qbint#29	VSS	5.15679e-17
C3343	mux_control_reg/qbint#29	VSS	5.40575e-17
C3344	\mem_reg[0]/n30#11	VSS	8.75994e-17
C3345	\mem_reg[10]/CKbb#20	VSS	5.65597e-17
C3346	\mem_reg[8]/qbint#29	VSS	5.27755e-17
C3347	\mem_reg[0]/mout#11	VSS	8.76586e-17
C3348	mux_control_reg/net367#11	VSS	1.11513e-16
C3349	FE_OFN0_q#32	VSS	9.54882e-19
C3350	\mem_reg[8]/net367#11	VSS	1.12137e-16
C3351	q_reg_reg/qbint#29	VSS	5.3161e-17
C3352	\mem_reg[10]/n20#11	VSS	8.11631e-17
C3353	\mem_reg[0]/CKbb#20	VSS	5.44719e-17
C3354	\mem_reg[10]/Db#8	VSS	6.52545e-17
C3355	mux_control_reg/n30#11	VSS	8.88887e-17
C3356	q_reg_reg/net367#8	VSS	1.16143e-18
C3357	\mem_reg[10]/CKb#25	VSS	7.01336e-17
C3358	mux_control_reg/mout#11	VSS	8.87824e-17
C3359	\mem_reg[8]/n30#11	VSS	8.78051e-17
C3360	\mem_reg[0]/n20#11	VSS	8.11841e-17
C3361	\mem_reg[8]/mout#11	VSS	8.9713e-17
C3362	\mem_reg[0]/Db#8	VSS	6.33904e-17
C3363	mux_control_reg/CKbb#20	VSS	5.41034e-17
C3364	\mem_reg[10]/Db#4	VSS	8.66634e-17
C3365	\mem_reg[0]/CKb#25	VSS	6.90146e-17
C3366	\mem_reg[8]/CKbb#20	VSS	5.6423e-17
C3367	\mem_reg[15]/n20#8	VSS	1.58082e-19
C3368	mux_control_reg/n20#11	VSS	8.13073e-17
C3369	q_reg_reg/CKbb#17	VSS	2.50816e-22
C3370	\mem_reg[10]/SEb#12	VSS	5.86775e-17
C3371	\mem_reg[0]/Db#4	VSS	8.1394e-17
C3372	mux_control_reg/Db#8	VSS	6.47362e-17
C3373	\mem_reg[8]/n20#11	VSS	8.00804e-17
C3374	\mem_reg[8]/Db#8	VSS	6.41368e-17
C3375	mux_control_reg/CKb#25	VSS	6.96205e-17
C3376	\mem_reg[9]/qbint#29	VSS	5.03968e-17
C3377	n_14#13	VSS	1.38056e-16
C3378	\mem_reg[8]/CKb#25	VSS	7.14172e-17
C3379	\mem_reg[0]/SEb#12	VSS	5.70514e-17
C3380	\mem_reg[2]/SEb#9	VSS	1.33026e-18
C3381	g495__6260/n0#3	VSS	2.05697e-19
C3382	g495__6260/n1#4	VSS	1.41452e-16
C3383	mux_control_reg/Db#4	VSS	8.0406e-17
C3384	UNCONNECTED5#4	VSS	9.55795e-17
C3385	\mem_reg[8]/Db#4	VSS	8.26759e-17
C3386	mem[13]#29	VSS	1.10272e-16
C3387	mux_control_reg/SEb#12	VSS	5.35707e-17
C3388	g495__6260/n1#2	VSS	1.35848e-16
C3389	n_6#11	VSS	1.47451e-16
C3390	\mem_reg[13]/qbint#29	VSS	5.36756e-17
C3391	\mem_reg[8]/SEb#12	VSS	5.92072e-17
C3392	UNCONNECTED16#4	VSS	9.59937e-17
C3393	\mem_reg[13]/net367#11	VSS	1.11361e-16
C3394	n_11#17	VSS	2.68379e-20
C3395	n_13#13	VSS	1.37297e-16
C3396	mem[11]#29	VSS	1.13111e-16
C3397	n_1#11	VSS	8.04003e-17
C3398	\mem_reg[6]/qbint#29	VSS	5.02572e-17
C3399	\mem_reg[11]/qbint#29	VSS	5.37173e-17
C3400	g496__4319/n1#4	VSS	1.41156e-16
C3401	\mem_reg[13]/n30#11	VSS	8.89672e-17
C3402	\mem_reg[13]/mout#11	VSS	8.95489e-17
C3403	\mem_reg[11]/net367#11	VSS	1.11418e-16
C3404	g519__1705/n0#9	VSS	8.12629e-17
C3405	q_control_reg/qbint#29	VSS	5.20094e-17
C3406	g496__4319/n1#2	VSS	1.37801e-16
C3407	\mem_reg[13]/CKbb#20	VSS	5.63841e-17
C3408	\mem_reg[11]/n30#11	VSS	8.95344e-17
C3409	q_control_reg/net367#8	VSS	2.21688e-19
C3410	n_10#13	VSS	8.26678e-17
C3411	\mem_reg[11]/mout#11	VSS	8.85926e-17
C3412	\mem_reg[13]/n20#11	VSS	8.17015e-17
C3413	n_8#33	VSS	1.51579e-20
C3414	\mem_reg[13]/Db#8	VSS	6.34556e-17
C3415	n_0#11	VSS	8.67268e-17
C3416	\mem_reg[11]/CKbb#20	VSS	5.6214e-17
C3417	\mem_reg[13]/CKb#25	VSS	7.35162e-17
C3418	g520__5122/n0#9	VSS	7.97703e-17
C3419	n_9#13	VSS	8.19233e-17
C3420	\mem_reg[6]/n20#8	VSS	6.82853e-20
C3421	\mem_reg[11]/n20#11	VSS	8.2872e-17
C3422	\mem_reg[13]/Db#4	VSS	8.07019e-17
C3423	\mem_reg[11]/Db#8	VSS	6.46136e-17
C3424	n_3#9	VSS	1.48841e-16
C3425	\mem_reg[11]/CKb#25	VSS	7.05847e-17
C3426	q_control_reg/n20#8	VSS	2.2661e-20
C3427	\mem_reg[13]/SEb#12	VSS	5.25827e-17
C3428	\mem_reg[11]/Db#4	VSS	8.3425e-17
C3429	UNCONNECTED13#4	VSS	9.59198e-17
C3430	n_4#8	VSS	1.49494e-16
C3431	n_7#30	VSS	1.59854e-16
C3432	mem[7]#27	VSS	1.10371e-16
C3433	\mem_reg[5]/qbint#29	VSS	5.05808e-17
C3434	\mem_reg[6]/SEb#9	VSS	3.41396e-20
C3435	\mem_reg[11]/SEb#12	VSS	5.35501e-17
C3436	\mem_reg[7]/qbint#29	VSS	5.62512e-17
C3437	UNCONNECTED6#4	VSS	9.23299e-17
C3438	UNCONNECTED17#4	VSS	9.12903e-17
C3439	UNCONNECTED8#4	VSS	9.54833e-17
C3440	\mem_reg[7]/net367#11	VSS	1.10965e-16
C3441	mem[14]#29	VSS	1.12663e-16
C3442	q_control_reg/SEb#9	VSS	3.14609e-18
C3443	mem[4]#27	VSS	1.10639e-16
C3444	mem[1]#26	VSS	2.2198e-20
C3445	mem[3]#29	VSS	1.12905e-16
C3446	\mem_reg[14]/qbint#29	VSS	5.06493e-17
C3447	\mem_reg[5]/n30#8	VSS	1.04968e-19
C3448	\mem_reg[12]/qbint#29	VSS	5.08054e-17
C3449	\mem_reg[4]/qbint#29	VSS	4.91481e-17
C3450	\mem_reg[1]/qbint#29	VSS	5.09298e-17
C3451	\mem_reg[3]/qbint#29	VSS	5.27286e-17
C3452	\mem_reg[5]/mout#8	VSS	1.71025e-19
C3453	\mem_reg[7]/n30#11	VSS	8.75419e-17
C3454	\mem_reg[14]/net367#11	VSS	1.09449e-16
C3455	\mem_reg[7]/mout#11	VSS	8.88039e-17
C3456	\mem_reg[4]/net367#11	VSS	1.09182e-16
C3457	\mem_reg[1]/net367#8	VSS	2.19313e-20
C3458	\mem_reg[3]/net367#11	VSS	1.11351e-16
C3459	scan_out[0]#25	VSS	2.61687e-19
C3460	\mem_reg[14]/n30#11	VSS	9.10807e-17
C3461	\mem_reg[7]/CKbb#20	VSS	5.6302e-17
C3462	scan_out[0]#21	VSS	1.15129e-19
C3463	\mem_reg[14]/mout#11	VSS	8.95514e-17
C3464	\mem_reg[4]/n30#11	VSS	8.82781e-17
C3465	\mem_reg[1]/n30#8	VSS	1.08992e-18
C3466	\mem_reg[3]/n30#11	VSS	9.13398e-17
C3467	\mem_reg[4]/mout#11	VSS	8.83419e-17
C3468	\mem_reg[1]/mout#8	VSS	1.17618e-18
C3469	\mem_reg[3]/mout#11	VSS	9.1061e-17
C3470	scan_out[0]#17	VSS	1.15129e-19
C3471	\mem_reg[7]/n20#11	VSS	8.16057e-17
C3472	\mem_reg[14]/CKbb#20	VSS	5.72488e-17
C3473	\mem_reg[7]/Db#8	VSS	6.33664e-17
C3474	\mem_reg[4]/CKbb#20	VSS	5.52626e-17
C3475	\mem_reg[1]/CKbb#17	VSS	8.73885e-19
C3476	\mem_reg[3]/CKbb#20	VSS	5.68107e-17
C3477	scan_out[0]#13	VSS	1.15129e-19
C3478	\mem_reg[7]/CKb#25	VSS	7.22918e-17
C3479	\mem_reg[14]/n20#11	VSS	8.83982e-17
C3480	scan_out[0]#9	VSS	1.15129e-19
C3481	\mem_reg[14]/Db#8	VSS	6.42534e-17
C3482	\mem_reg[4]/n20#11	VSS	8.20795e-17
C3483	\mem_reg[1]/n20#8	VSS	1.17618e-18
C3484	\mem_reg[3]/n20#11	VSS	8.46652e-17
C3485	\mem_reg[7]/Db#4	VSS	8.14633e-17
C3486	\mem_reg[4]/Db#8	VSS	6.42366e-17
C3487	\mem_reg[1]/Db#5	VSS	3.58501e-19
C3488	\mem_reg[3]/Db#8	VSS	6.51525e-17
C3489	\mem_reg[14]/CKb#25	VSS	7.00334e-17
C3490	scan_out[0]#5	VSS	1.15129e-19
C3491	\mem_reg[12]/CKb#22	VSS	9.77905e-21
C3492	\mem_reg[4]/CKb#25	VSS	6.90872e-17
C3493	\mem_reg[1]/CKb#22	VSS	1.40125e-19
C3494	\mem_reg[3]/CKb#25	VSS	7.48554e-17
C3495	\mem_reg[5]/SEb#9	VSS	3.6815e-18
C3496	scan_out[0]#1	VSS	1.15129e-19
C3497	\mem_reg[7]/SEb#12	VSS	4.83616e-17
C3498	\mem_reg[14]/Db#4	VSS	8.43238e-17
C3499	\mem_reg[4]/Db#4	VSS	8.12148e-17
C3500	\mem_reg[3]/Db#4	VSS	8.19465e-17
C3501	FE_OFC1_scan_out_0/n0#118	VSS	4.57542e-19
C3502	\mem_reg[14]/SEb#12	VSS	4.86374e-17
C3503	\mem_reg[4]/SEb#12	VSS	4.83185e-17
C3504	\mem_reg[3]/SEb#12	VSS	5.33504e-17
C3505	\mem_reg[12]/qbint#25	VSS	8.99135e-17
C3506	\mem_reg[4]/qbint#25	VSS	8.99296e-17
C3507	\mem_reg[1]/qbint#25	VSS	9.1919e-17
C3508	\mem_reg[3]/qbint#25	VSS	8.93763e-17
C3509	\mem_reg[14]/qbint#25	VSS	9.35036e-17
C3510	\mem_reg[7]/qbint#25	VSS	9.10515e-17
C3511	\mem_reg[5]/qbint#25	VSS	9.51476e-17
C3512	q_control_reg/qbint#25	VSS	8.98224e-17
C3513	\mem_reg[6]/qbint#25	VSS	9.19741e-17
C3514	\mem_reg[11]/qbint#25	VSS	8.38892e-17
C3515	\mem_reg[13]/qbint#25	VSS	8.54775e-17
C3516	\mem_reg[9]/qbint#25	VSS	9.26788e-17
C3517	q_reg_reg/qbint#25	VSS	9.14382e-17
C3518	\mem_reg[8]/qbint#25	VSS	9.62566e-17
C3519	\mem_reg[15]/qbint#25	VSS	8.96181e-17
C3520	mux_control_reg/qbint#25	VSS	8.81153e-17
C3521	\mem_reg[0]/qbint#25	VSS	9.91548e-17
C3522	\mem_reg[2]/qbint#25	VSS	9.82359e-17
C3523	\mem_reg[10]/qbint#25	VSS	1.05426e-16
C3524	VDD#2	VSS	3.13204e-17
C3525	VDD#6	VSS	4.40176e-17
C3526	VDD#7	VSS	5.5656e-17
C3527	VDD#8	VSS	3.02188e-17
C3528	VDD#9	VSS	2.24648e-17
C3529	VDD#10	VSS	3.73512e-17
C3530	VDD#11	VSS	5.05213e-17
C3531	VDD#13	VSS	3.58694e-17
C3532	VDD#16	VSS	3.10414e-17
C3533	VDD#18	VSS	5.48742e-17
C3534	VDD#20	VSS	5.73236e-17
C3535	VDD#21	VSS	7.60679e-17
C3536	VDD#23	VSS	6.95339e-17
C3537	VDD#24	VSS	4.14166e-17
C3538	VDD#25	VSS	3.21756e-17
C3539	VDD#28	VSS	2.20298e-17
C3540	VDD#29	VSS	2.71362e-17
C3541	VDD#30	VSS	3.94124e-17
C3542	VDD#31	VSS	6.64425e-17
C3543	VDD#32	VSS	3.27345e-17
C3544	VDD#33	VSS	5.97068e-17
C3545	VDD#34	VSS	5.65464e-17
C3546	VDD#35	VSS	2.31901e-17
C3547	VDD#36	VSS	3.11388e-17
C3548	VDD#40	VSS	1.04221e-16
C3549	VDD#41	VSS	6.97322e-17
C3550	VDD#42	VSS	2.14121e-17
C3551	VDD#43	VSS	5.62027e-17
C3552	VDD#46	VSS	2.9199e-17
C3553	VDD#47	VSS	5.81662e-17
C3554	VDD#48	VSS	7.06235e-17
C3555	VDD#49	VSS	5.21001e-17
C3556	VDD#52	VSS	1.09021e-16
C3557	VDD#53	VSS	8.3028e-17
C3558	VDD#104	VSS	3.67178e-17
C3559	VDD#109	VSS	3.6373e-17
C3560	VDD#110	VSS	2.98665e-17
C3561	VDD#113	VSS	1.3648e-17
C3562	VDD#114	VSS	2.82143e-17
C3563	VDD#115	VSS	3.59534e-17
C3564	VDD#116	VSS	2.66672e-17
C3565	VDD#119	VSS	5.5672e-17
C3566	VDD#120	VSS	4.08872e-17
C3567	VDD#121	VSS	3.00523e-17
C3568	VDD#124	VSS	1.35803e-17
C3569	VDD#125	VSS	2.76825e-17
C3570	VDD#126	VSS	3.38213e-17
C3571	VDD#127	VSS	2.48161e-17
C3572	VDD#130	VSS	5.38085e-17
C3573	VDD#131	VSS	3.95555e-17
C3574	VDD#132	VSS	7.07423e-18
C3575	VDD#153	VSS	2.09194e-17
C3576	VDD#154	VSS	2.10718e-17
C3577	VDD#155	VSS	2.09614e-17
C3578	VDD#156	VSS	2.1003e-17
C3579	VDD#159	VSS	1.98975e-17
C3580	VDD#160	VSS	2.11709e-17
C3581	VDD#161	VSS	3.43984e-17
C3582	VDD#173	VSS	4.54104e-17
C3583	VDD#178	VSS	4.83194e-17
C3584	VDD#179	VSS	2.68843e-17
C3585	VDD#180	VSS	5.46841e-17
C3586	VDD#181	VSS	4.20234e-17
C3587	VDD#182	VSS	2.25764e-17
C3588	VDD#183	VSS	2.47821e-17
C3589	VDD#184	VSS	2.69869e-17
C3590	VDD#187	VSS	7.54115e-17
C3591	VDD#188	VSS	6.22457e-17
C3592	VDD#189	VSS	5.93083e-17
C3593	VDD#190	VSS	3.45571e-17
C3594	VDD#191	VSS	6.26465e-17
C3595	VDD#192	VSS	5.65125e-17
C3596	VDD#193	VSS	3.35335e-17
C3597	VDD#196	VSS	3.46983e-17
C3598	VDD#197	VSS	1.65622e-17
C3599	VDD#198	VSS	3.17517e-17
C3600	VDD#199	VSS	3.03071e-17
C3601	VDD#200	VSS	1.78058e-17
C3602	VDD#202	VSS	6.63108e-17
C3603	VDD#203	VSS	8.72773e-17
C3604	VDD#204	VSS	6.23658e-17
C3605	VDD#207	VSS	8.21709e-17
C3606	VDD#208	VSS	8.31449e-17
C3607	VDD#209	VSS	1.00918e-16
C3608	VDD#210	VSS	5.59769e-17
C3609	VDD#213	VSS	2.77324e-17
C3610	VDD#214	VSS	5.35912e-17
C3611	VDD#215	VSS	7.65174e-17
C3612	VDD#216	VSS	5.4891e-17
C3613	VDD#219	VSS	1.07094e-16
C3614	VDD#220	VSS	8.30935e-17
C3615	VDD#267	VSS	4.35642e-17
C3616	VDD#268	VSS	5.54386e-17
C3617	VDD#269	VSS	3.23362e-17
C3618	VDD#276	VSS	5.67131e-17
C3619	VDD#279	VSS	4.97598e-17
C3620	VDD#282	VSS	2.09413e-17
C3621	VDD#283	VSS	2.32984e-17
C3622	VDD#286	VSS	5.40453e-17
C3623	VDD#287	VSS	7.36581e-17
C3624	VDD#290	VSS	5.83637e-17
C3625	VDD#294	VSS	3.14565e-17
C3626	VDD#295	VSS	6.49441e-17
C3627	VDD#299	VSS	7.84786e-17
C3628	VDD#301	VSS	2.16564e-17
C3629	VDD#302	VSS	4.14054e-17
C3630	VDD#305	VSS	6.01054e-17
C3631	VDD#306	VSS	4.25703e-17
C3632	VDD#311	VSS	9.21237e-17
C3633	VDD#316	VSS	1.08151e-16
C3634	VDD#317	VSS	1.10833e-16
C3635	VDD#319	VSS	9.00613e-17
C3636	VDD#326	VSS	2.03326e-17
C3637	VDD#329	VSS	3.43865e-17
C3638	VDD#330	VSS	5.05366e-17
C3639	VDD#334	VSS	3.74683e-17
C3640	VDD#337	VSS	5.40599e-17
C3641	VDD#338	VSS	5.8561e-17
C3642	VDD#341	VSS	3.79372e-17
C3643	VDD#343	VSS	5.26351e-17
C3644	VDD#347	VSS	7.04913e-17
C3645	VDD#351	VSS	5.00872e-17
C3646	VDD#355	VSS	2.85081e-17
C3647	VDD#359	VSS	1.31937e-17
C3648	VDD#360	VSS	2.7885e-17
C3649	VDD#361	VSS	3.62295e-17
C3650	VDD#362	VSS	2.62816e-17
C3651	VDD#365	VSS	5.11127e-17
C3652	VDD#366	VSS	4.00205e-17
C3653	VDD#367	VSS	2.88235e-17
C3654	VDD#370	VSS	1.29066e-17
C3655	VDD#371	VSS	2.8025e-17
C3656	VDD#372	VSS	3.60364e-17
C3657	VDD#373	VSS	2.62816e-17
C3658	VDD#376	VSS	5.01955e-17
C3659	VDD#377	VSS	4.05648e-17
C3660	VDD#378	VSS	3.0168e-17
C3661	VDD#381	VSS	1.31937e-17
C3662	VDD#382	VSS	2.90599e-17
C3663	VDD#383	VSS	3.72134e-17
C3664	VDD#384	VSS	2.62816e-17
C3665	VDD#387	VSS	5.091e-17
C3666	VDD#388	VSS	3.95035e-17
C3667	VDD	VSS	2.20328e-17
C3668	VDD	VSS	2.20328e-17
C3669	scan_out[0]#34	VSS	1.39873e-16
C3670	scan_out[0]#35	VSS	1.03033e-16
C3671	scan_out[0]#36	VSS	1.15235e-16
C3672	scan_out[0]#37	VSS	1.16764e-16
C3673	scan_out[0]#38	VSS	1.18634e-16
C3674	scan_out[0]#39	VSS	1.17705e-16
C3675	scan_out[0]#40	VSS	1.17429e-16
C3676	scan_out[0]#41	VSS	1.1621e-16
C3677	g521__1617/net89#8	VSS	2.61108e-16
C3678	g522__2802/net89#8	VSS	2.70811e-16
C3679	g520__5122/n0#15	VSS	3.08975e-16
C3680	n_10#17	VSS	4.07191e-16
C3681	g519__1705/n0#15	VSS	3.11264e-16
C3682	g509__6783/net89#8	VSS	2.17089e-16
C3683	g493__2398/n0#37	VSS	2.91075e-16
C3684	g510__3680/net89#8	VSS	2.55137e-16
C3685	g494__5107/n0#15	VSS	3.83266e-16
C3686	q#34	VSS	1.42385e-16
C3687	q#35	VSS	1.57628e-16
C3688	q#36	VSS	1.49576e-16
C3689	q#37	VSS	2.10759e-16
C3690	q#38	VSS	1.30849e-16
C3691	q#39	VSS	1.16126e-16
C3692	q#40	VSS	1.43758e-16
C3693	q#41	VSS	1.86336e-16
C3694	scan_clk#202	VSS	6.63626e-16
C3695	scan_en#349	VSS	5.76122e-16
C3696	scan_en#354	VSS	7.11286e-16
C3697	scan_clk#215	VSS	2.13736e-16
C3698	scan_clk#216	VSS	4.94933e-16
C3699	mem[7]#49	VSS	4.95315e-16
C3700	addr[1]#95	VSS	6.11287e-16
C3701	mem[13]#44	VSS	8.9691e-16
C3702	FE_OFN1_scan_out_0#75	VSS	4.8846e-16
C3703	n_12#44	VSS	3.40791e-16
C3704	n_12#45	VSS	1.14816e-15
C3705	n_11#32	VSS	8.87896e-16
C3706	mem[2]#43	VSS	3.51928e-16
C3707	mem[0]#46	VSS	7.34253e-16
C3708	scan_clk#225	VSS	1.47469e-15
C3709	scan_clk#226	VSS	1.20605e-15
C3710	x#24	VSS	1.85288e-15
C3711	mem[4]#50	VSS	7.39442e-16
C3712	n_8#63	VSS	2.35333e-15
C3713	VDD	VSS	7.65904e-16
C3714	VDD	VSS	9.76588e-16
*
*
.ENDS clb
*
