
Spectre (R) Circuit Simulator
Version 19.1.0.455.isr11 64bit -- 10 Sep 2020
Copyright (C) 1989-2020 Cadence Design Systems, Inc. All rights reserved worldwide. Cadence and Spectre are registered trademarks of Cadence Design Systems, Inc. All others are the property of their respective holders.

Includes RSA BSAFE(R) Cryptographic or Security Protocol Software from RSA Security, Inc.

User: aryap   Host: eda-1.EECS.Berkeley.EDU   HostID: 2080902A   PID: 3840323
Memory  available: 322.0774 GB  physical: 810.7755 GB
Linux   : Red Hat Enterprise Linux release 8.10 (Ootpa)
CPU Type: AMD EPYC 9454 48-Core Processor
        Socket: Processors [Frequency] (Hyperthreaded Processor)
        0:       0 [1707.6] (),  1 [1500.0] (),  2 [1500.0] (),  3 [1500.0] (),  4 [1500.0] ()
                 5 [1500.0] (),  6 [1500.0] (),  7 [1500.0] (),  8 [1500.0] (),  9 [1500.0] ()
                10 [1500.0] (), 11 [1500.0] (), 12 [1500.0] (), 13 [1500.0] (), 14 [1500.0] ()
                15 [1500.0] (), 16 [2750.0] (), 17 [1500.0] (), 18 [1500.0] (), 19 [1500.0] ()
                20 [1612.6] (), 21 [1500.0] (), 22 [1500.0] (), 23 [1500.0] (), 24 [1500.0] ()
                25 [1500.0] (), 26 [1500.0] (), 27 [1500.0] (), 28 [1500.0] (), 29 [1500.0] ()
                30 [1500.0] (), 31 [1500.0] (), 32 [1500.0] (), 33 [1500.0] (), 34 [1500.0] ()
                35 [1500.0] (), 36 [1500.0] (), 37 [1500.0] (), 38 [1500.0] (), 39 [1500.0] ()
                40 [1500.0] (), 41 [1500.0] (), 42 [3799.9] (), 43 [1500.0] (), 44 [1500.0] ()
                45 [1500.0] (), 46 [1500.0] (), 47 [1500.0] (), 48 [1500.0] (), 49 [1500.0] ()
                50 [1500.0] (), 51 [1500.0] (), 52 [1500.0] (), 53 [1500.0] (), 54 [2362.6] ()
                55 [1500.0] (), 56 [1500.0] (), 57 [3799.9] (), 58 [1500.0] (), 59 [1500.0] ()
                60 [1500.0] (), 61 [1500.0] (), 62 [2130.0] (), 63 [1500.0] (), 64 [1500.0] ()
                65 [1500.0] (), 66 [1500.0] (), 67 [1500.0] (), 68 [1500.0] (), 69 [1500.0] ()
                70 [1500.0] (), 71 [1500.0] (), 72 [1500.0] (), 73 [1500.0] (), 74 [1500.0] ()
                75 [1500.0] (), 76 [1500.0] (), 77 [1500.0] (), 78 [3799.8] (), 79 [1500.0] ()
                80 [1500.0] (), 81 [1500.0] (), 82 [1500.0] (), 83 [1500.0] (), 84 [1500.0] ()
                85 [1500.0] (), 86 [1500.0] (), 87 [1500.0] (), 88 [1500.0] (), 89 [1500.0] ()
                90 [1500.0] (), 91 [1500.0] (), 92 [1500.0] (), 93 [1500.0] (), 94 [1500.0] ()
                95 [1500.0] ()
        
System load averages (1min, 5min, 15min) : 7.5 %, 7.7 %, 8.2 %
Hyperthreading is enabled


Simulating `testbench.sp' on eda-1.EECS.Berkeley.EDU at 6:29:02 PM, Wed Apr 15, 2026 (process id: 3840323).
Current working directory: /scratch/aryap/chipyard/vlsi/manual
Command line:
    /share/instsww/cadence/LIBERATE/tools.lnx86/bin/spectre -64  \
        testbench.sp

Loading /share/instsww/cadence/LIBERATE/tools.lnx86/cmi/lib/64bit/5.0/libinfineon_sh.so ...
Loading /share/instsww/cadence/LIBERATE/tools.lnx86/cmi/lib/64bit/5.0/libphilips_o_sh.so ...
Loading /share/instsww/cadence/LIBERATE/tools.lnx86/cmi/lib/64bit/5.0/libphilips_sh.so ...
Loading /share/instsww/cadence/LIBERATE/tools.lnx86/cmi/lib/64bit/5.0/libsparam_sh.so ...
Loading /share/instsww/cadence/LIBERATE/tools.lnx86/cmi/lib/64bit/5.0/libstmodels_sh.so ...
Reading file:  /scratch/aryap/chipyard/vlsi/manual/testbench.sp
Reading link:  /share/instsww/cadence/LIBERATE
Reading file:  /share/instsww/cadence/LIBERATE.19.12.294/tools.lnx86/spectre/etc/configs/spectre.cfg
Reading file:  /home/ff/eecs251b/sky130/sky130_cds/sky130_release_0.0.4/models/sky130.lib.spice
Reading file:  /home/ff/eecs251b/sky130/sky130_cds/sky130_release_0.0.4/cells/nfet_01v8/sky130_fd_pr__nfet_01v8__tt.corner.spice
Reading file:  /home/ff/eecs251b/sky130/sky130_cds/sky130_release_0.0.4/cells/nfet_01v8/sky130_fd_pr__nfet_01v8__tt.pm3.spice
Reading file:  /home/ff/eecs251b/sky130/sky130_cds/sky130_release_0.0.4/cells/nfet_01v8_lvt/sky130_fd_pr__nfet_01v8_lvt__tt.corner.spice
Reading file:  /home/ff/eecs251b/sky130/sky130_cds/sky130_release_0.0.4/cells/nfet_01v8_lvt/sky130_fd_pr__nfet_01v8_lvt__tt.pm3.spice
Reading file:  /home/ff/eecs251b/sky130/sky130_cds/sky130_release_0.0.4/cells/pfet_01v8/sky130_fd_pr__pfet_01v8__tt.corner.spice
Reading file:  /home/ff/eecs251b/sky130/sky130_cds/sky130_release_0.0.4/cells/pfet_01v8/sky130_fd_pr__pfet_01v8__tt.pm3.spice
Reading file:  /home/ff/eecs251b/sky130/sky130_cds/sky130_release_0.0.4/cells/nfet_03v3_nvt/sky130_fd_pr__nfet_03v3_nvt__tt.corner.spice
Reading file:  /home/ff/eecs251b/sky130/sky130_cds/sky130_release_0.0.4/cells/nfet_03v3_nvt/sky130_fd_pr__nfet_03v3_nvt.pm3.spice
Reading file:  /home/ff/eecs251b/sky130/sky130_cds/sky130_release_0.0.4/cells/nfet_05v0_nvt/sky130_fd_pr__nfet_05v0_nvt__tt.corner.spice
Reading file:  /home/ff/eecs251b/sky130/sky130_cds/sky130_release_0.0.4/cells/nfet_05v0_nvt/sky130_fd_pr__nfet_05v0_nvt.pm3.spice
Reading file:  /home/ff/eecs251b/sky130/sky130_cds/sky130_release_0.0.4/cells/esd_nfet_01v8/sky130_fd_pr__esd_nfet_01v8__tt.corner.spice
Reading file:  /home/ff/eecs251b/sky130/sky130_cds/sky130_release_0.0.4/cells/esd_nfet_01v8/sky130_fd_pr__esd_nfet_01v8.pm3.spice
Reading file:  /home/ff/eecs251b/sky130/sky130_cds/sky130_release_0.0.4/cells/pfet_01v8_lvt/sky130_fd_pr__pfet_01v8_lvt__tt.corner.spice
Reading file:  /home/ff/eecs251b/sky130/sky130_cds/sky130_release_0.0.4/cells/pfet_01v8_lvt/sky130_fd_pr__pfet_01v8_lvt__tt.pm3.spice
Reading file:  /home/ff/eecs251b/sky130/sky130_cds/sky130_release_0.0.4/cells/pfet_01v8_hvt/sky130_fd_pr__pfet_01v8_hvt__tt.corner.spice
Reading file:  /home/ff/eecs251b/sky130/sky130_cds/sky130_release_0.0.4/cells/pfet_01v8_hvt/sky130_fd_pr__pfet_01v8_hvt__tt.pm3.spice
Reading file:  /home/ff/eecs251b/sky130/sky130_cds/sky130_release_0.0.4/cells/esd_pfet_g5v0d10v5/sky130_fd_pr__esd_pfet_g5v0d10v5__tt.corner.spice
Reading file:  /home/ff/eecs251b/sky130/sky130_cds/sky130_release_0.0.4/cells/esd_pfet_g5v0d10v5/sky130_fd_pr__esd_pfet_g5v0d10v5.pm3.spice
Reading file:  /home/ff/eecs251b/sky130/sky130_cds/sky130_release_0.0.4/cells/pfet_g5v0d10v5/sky130_fd_pr__pfet_g5v0d10v5__tt.corner.spice
Reading file:  /home/ff/eecs251b/sky130/sky130_cds/sky130_release_0.0.4/cells/pfet_g5v0d10v5/sky130_fd_pr__pfet_g5v0d10v5__tt.pm3.spice
Reading file:  /home/ff/eecs251b/sky130/sky130_cds/sky130_release_0.0.4/cells/pfet_g5v0d16v0/sky130_fd_pr__pfet_g5v0d16v0__tt.corner.spice
Reading file:  /home/ff/eecs251b/sky130/sky130_cds/sky130_release_0.0.4/cells/nfet_g5v0d10v5/sky130_fd_pr__nfet_g5v0d10v5__tt.corner.spice
Reading file:  /home/ff/eecs251b/sky130/sky130_cds/sky130_release_0.0.4/cells/nfet_g5v0d10v5/sky130_fd_pr__nfet_g5v0d10v5__tt.pm3.spice
Reading file:  /home/ff/eecs251b/sky130/sky130_cds/sky130_release_0.0.4/cells/nfet_g5v0d16v0/sky130_fd_pr__nfet_g5v0d16v0__tt_discrete.corner.spice
Reading file:  /home/ff/eecs251b/sky130/sky130_cds/sky130_release_0.0.4/cells/nfet_g5v0d16v0/sky130_fd_pr__nfet_g5v0d16v0__subcircuit.pm3.spice
Reading file:  /home/ff/eecs251b/sky130/sky130_cds/sky130_release_0.0.4/cells/nfet_g5v0d16v0/sky130_fd_pr__nfet_g5v0d16v0.pm3.spice
Reading file:  /home/ff/eecs251b/sky130/sky130_cds/sky130_release_0.0.4/cells/esd_nfet_g5v0d10v5/sky130_fd_pr__esd_nfet_g5v0d10v5__tt.corner.spice
Reading file:  /home/ff/eecs251b/sky130/sky130_cds/sky130_release_0.0.4/cells/esd_nfet_g5v0d10v5/sky130_fd_pr__esd_nfet_g5v0d10v5.pm3.spice
Reading file:  /home/ff/eecs251b/sky130/sky130_cds/sky130_release_0.0.4/models/corners/tt/nonfet.spice
Reading file:  /home/ff/eecs251b/sky130/sky130_cds/sky130_release_0.0.4/cells/nfet_01v8/sky130_fd_pr__nfet_01v8__mismatch.corner.spice
Reading file:  /home/ff/eecs251b/sky130/sky130_cds/sky130_release_0.0.4/cells/pfet_01v8/sky130_fd_pr__pfet_01v8__mismatch.corner.spice
Reading file:  /home/ff/eecs251b/sky130/sky130_cds/sky130_release_0.0.4/cells/nfet_01v8_lvt/sky130_fd_pr__nfet_01v8_lvt__mismatch.corner.spice
Reading file:  /home/ff/eecs251b/sky130/sky130_cds/sky130_release_0.0.4/cells/pfet_01v8_lvt/sky130_fd_pr__pfet_01v8_lvt__mismatch.corner.spice
Reading file:  /home/ff/eecs251b/sky130/sky130_cds/sky130_release_0.0.4/cells/pfet_01v8_hvt/sky130_fd_pr__pfet_01v8_hvt__mismatch.corner.spice
Reading file:  /home/ff/eecs251b/sky130/sky130_cds/sky130_release_0.0.4/cells/nfet_g5v0d10v5/sky130_fd_pr__nfet_g5v0d10v5__mismatch.corner.spice
Reading file:  /home/ff/eecs251b/sky130/sky130_cds/sky130_release_0.0.4/cells/pfet_g5v0d10v5/sky130_fd_pr__pfet_g5v0d10v5__mismatch.corner.spice
Reading file:  /home/ff/eecs251b/sky130/sky130_cds/sky130_release_0.0.4/cells/nfet_05v0_nvt/sky130_fd_pr__nfet_05v0_nvt__mismatch.corner.spice
Reading file:  /home/ff/eecs251b/sky130/sky130_cds/sky130_release_0.0.4/cells/nfet_03v3_nvt/sky130_fd_pr__nfet_03v3_nvt__mismatch.corner.spice
Reading file:  /home/ff/eecs251b/sky130/sky130_cds/sky130_release_0.0.4/models/r+c/res_typical__cap_typical.spice
Reading file:  /home/ff/eecs251b/sky130/sky130_cds/sky130_release_0.0.4/models/sky130_fd_pr__model__r+c.model.spice
Reading file:  /home/ff/eecs251b/sky130/sky130_cds/sky130_release_0.0.4/models/r+c.mrp1monte.spice
Reading file:  /home/ff/eecs251b/sky130/sky130_cds/sky130_release_0.0.4/cells/res_generic_nd/sky130_fd_pr__res_generic_nd.model.spice
Reading file:  /home/ff/eecs251b/sky130/sky130_cds/sky130_release_0.0.4/cells/res_generic_pd/sky130_fd_pr__res_generic_pd.model.spice
Reading file:  /home/ff/eecs251b/sky130/sky130_cds/sky130_release_0.0.4/models/parameters/typical.spice
Reading file:  /home/ff/eecs251b/sky130/sky130_cds/sky130_release_0.0.4/models/r+c/res_typical__cap_typical__lin.spice
Reading file:  /home/ff/eecs251b/sky130/sky130_cds/sky130_release_0.0.4/models/capacitors/sky130_fd_pr__model__cap_vpp.model.spice
Reading file:  /home/ff/eecs251b/sky130/sky130_cds/sky130_release_0.0.4/cells/cap_vpp_08p6x07p8_l1m1m2_noshield/sky130_fd_pr__cap_vpp_08p6x07p8_l1m1m2_noshield.model.spice
Reading file:  /home/ff/eecs251b/sky130/sky130_cds/sky130_release_0.0.4/cells/cap_vpp_04p4x04p6_l1m1m2_noshield/sky130_fd_pr__cap_vpp_04p4x04p6_l1m1m2_noshield.model.spice
Reading file:  /home/ff/eecs251b/sky130/sky130_cds/sky130_release_0.0.4/cells/cap_vpp_11p5x11p7_l1m1m2_noshield/sky130_fd_pr__cap_vpp_11p5x11p7_l1m1m2_noshield.model.spice
Reading file:  /home/ff/eecs251b/sky130/sky130_cds/sky130_release_0.0.4/cells/cap_vpp_01p8x01p8_m1m2_noshield/sky130_fd_pr__cap_vpp_01p8x01p8_m1m2_noshield.model.spice
Reading file:  /home/ff/eecs251b/sky130/sky130_cds/sky130_release_0.0.4/cells/cap_vpp_08p6x07p8_m1m2_shieldl1/sky130_fd_pr__cap_vpp_08p6x07p8_m1m2_shieldl1.model.spice
Reading file:  /home/ff/eecs251b/sky130/sky130_cds/sky130_release_0.0.4/cells/cap_vpp_04p4x04p6_m1m2_shieldl1/sky130_fd_pr__cap_vpp_04p4x04p6_m1m2_shieldl1.model.spice
Reading file:  /home/ff/eecs251b/sky130/sky130_cds/sky130_release_0.0.4/cells/cap_vpp_11p5x11p7_m1m2_shieldl1/sky130_fd_pr__cap_vpp_11p5x11p7_m1m2_shieldl1.model.spice
Reading file:  /home/ff/eecs251b/sky130/sky130_cds/sky130_release_0.0.4/cells/cap_vpp_08p6x07p8_l1m1m2_shieldpo_floatm3/sky130_fd_pr__cap_vpp_08p6x07p8_l1m1m2_shieldpo_floatm3.model.spice
Reading file:  /home/ff/eecs251b/sky130/sky130_cds/sky130_release_0.0.4/cells/cap_vpp_04p4x04p6_l1m1m2_shieldpo_floatm3/sky130_fd_pr__cap_vpp_04p4x04p6_l1m1m2_shieldpo_floatm3.model.spice
Reading file:  /home/ff/eecs251b/sky130/sky130_cds/sky130_release_0.0.4/cells/cap_vpp_11p5x11p7_l1m1m2_shieldpom3/sky130_fd_pr__cap_vpp_11p5x11p7_l1m1m2_shieldpom3.model.spice
Reading file:  /home/ff/eecs251b/sky130/sky130_cds/sky130_release_0.0.4/cells/cap_vpp_03p9x03p9_m1m2_shieldl1_floatm3/sky130_fd_pr__cap_vpp_03p9x03p9_m1m2_shieldl1_floatm3.model.spice
Reading file:  /home/ff/eecs251b/sky130/sky130_cds/sky130_release_0.0.4/cells/cap_vpp_04p4x04p6_l1m1m2_noshield/sky130_fd_pr__cap_vpp_04p4x04p6_l1m1m2_noshield_o1.model.spice
Reading file:  /home/ff/eecs251b/sky130/sky130_cds/sky130_release_0.0.4/cells/cap_vpp_08p6x07p8_m1m2_noshield/sky130_fd_pr__cap_vpp_08p6x07p8_m1m2_noshield.model.spice
Reading file:  /home/ff/eecs251b/sky130/sky130_cds/sky130_release_0.0.4/cells/cap_vpp_04p4x04p6_m1m2_noshield/sky130_fd_pr__cap_vpp_04p4x04p6_m1m2_noshield_o2.model.spice
Reading file:  /home/ff/eecs251b/sky130/sky130_cds/sky130_release_0.0.4/cells/cap_vpp_02p4x04p6_m1m2_noshield/sky130_fd_pr__cap_vpp_02p4x04p6_m1m2_noshield.model.spice
Reading file:  /home/ff/eecs251b/sky130/sky130_cds/sky130_release_0.0.4/cells/cap_vpp_04p4x04p6_m1m2_noshield/sky130_fd_pr__cap_vpp_04p4x04p6_m1m2_noshield.model.spice
Reading file:  /home/ff/eecs251b/sky130/sky130_cds/sky130_release_0.0.4/cells/cap_vpp_11p5x11p7_m1m2_noshield/sky130_fd_pr__cap_vpp_11p5x11p7_m1m2_noshield.model.spice
Reading file:  /home/ff/eecs251b/sky130/sky130_cds/sky130_release_0.0.4/cells/npn_05v5/sky130_fd_pr__npn_05v5__t.corner.spice
Reading file:  /home/ff/eecs251b/sky130/sky130_cds/sky130_release_0.0.4/cells/npn_05v5/sky130_fd_pr__npn_05v5_W1p00L1p00.model.spice
Reading file:  /home/ff/eecs251b/sky130/sky130_cds/sky130_release_0.0.4/cells/npn_05v5/sky130_fd_pr__npn_05v5_W1p00L2p00.model.spice
Reading file:  /home/ff/eecs251b/sky130/sky130_cds/sky130_release_0.0.4/cells/npn_11v0/sky130_fd_pr__npn_11v0_W1p00L1p00.model.spice
Reading file:  /home/ff/eecs251b/sky130/sky130_cds/sky130_release_0.0.4/cells/pnp_05v5/sky130_fd_pr__pnp_05v5_W3p40L3p40.model.spice
Reading file:  /home/ff/eecs251b/sky130/sky130_cds/sky130_release_0.0.4/models/corners/tt/specialized_cells.spice
Reading file:  /home/ff/eecs251b/sky130/sky130_cds/sky130_release_0.0.4/cells/special_nfet_latch/sky130_fd_pr__special_nfet_latch__mismatch.corner.spice
Reading file:  /home/ff/eecs251b/sky130/sky130_cds/sky130_release_0.0.4/cells/special_nfet_pass/sky130_fd_pr__special_nfet_pass__mismatch.corner.spice
Reading file:  /home/ff/eecs251b/sky130/sky130_cds/sky130_release_0.0.4/cells/special_nfet_pass_flash/sky130_fd_pr__special_nfet_pass_flash__mismatch.corner.spice
Reading file:  /home/ff/eecs251b/sky130/sky130_cds/sky130_release_0.0.4/cells/special_pfet_pass/sky130_fd_pr__special_pfet_pass__mismatch.corner.spice
Reading file:  /home/ff/eecs251b/sky130/sky130_cds/sky130_release_0.0.4/cells/special_nfet_pass_lvt/sky130_fd_pr__special_nfet_pass_lvt__tt.corner.spice
Reading file:  /home/ff/eecs251b/sky130/sky130_cds/sky130_release_0.0.4/cells/special_nfet_pass_lvt/sky130_fd_pr__special_nfet_pass_lvt.pm3.spice
Reading file:  /home/ff/eecs251b/sky130/sky130_cds/sky130_release_0.0.4/models/all.spice
Reading file:  /home/ff/eecs251b/sky130/sky130_cds/sky130_release_0.0.4/models/parameters/lod.spice
Reading file:  /home/ff/eecs251b/sky130/sky130_cds/sky130_release_0.0.4/models/parasitics/sky130_fd_pr__model__parasitic__diode_ps2nw.model.spice
Reading file:  /home/ff/eecs251b/sky130/sky130_cds/sky130_release_0.0.4/cells/diode_pw2nd_05v5/sky130_fd_pr__diode_pw2nd_05v5.model.spice
Reading file:  /home/ff/eecs251b/sky130/sky130_cds/sky130_release_0.0.4/cells/diode_pd2nw_05v5/sky130_fd_pr__diode_pd2nw_05v5.model.spice
Reading file:  /home/ff/eecs251b/sky130/sky130_cds/sky130_release_0.0.4/cells/diode_pd2nw_05v5_hvt/sky130_fd_pr__diode_pd2nw_05v5_hvt.model.spice
Reading file:  /home/ff/eecs251b/sky130/sky130_cds/sky130_release_0.0.4/cells/diode_pw2nd_11v0/sky130_fd_pr__diode_pw2nd_11v0.model.spice
Reading file:  /home/ff/eecs251b/sky130/sky130_cds/sky130_release_0.0.4/cells/diode_pd2nw_11v0/sky130_fd_pr__diode_pd2nw_11v0.model.spice
Reading file:  /home/ff/eecs251b/sky130/sky130_cds/sky130_release_0.0.4/cells/diode_pw2nd_05v5_nvt/sky130_fd_pr__diode_pw2nd_05v5_nvt.model.spice
Reading file:  /home/ff/eecs251b/sky130/sky130_cds/sky130_release_0.0.4/cells/diode_pw2nd_05v5_lvt/sky130_fd_pr__diode_pw2nd_05v5_lvt.model.spice
Reading file:  /home/ff/eecs251b/sky130/sky130_cds/sky130_release_0.0.4/cells/diode_pd2nw_05v5_lvt/sky130_fd_pr__diode_pd2nw_05v5_lvt.model.spice
Reading file:  /home/ff/eecs251b/sky130/sky130_cds/sky130_release_0.0.4/models/parasitics/sky130_fd_pr__model__parasitic__diode_pw2dn.model.spice
Reading file:  /home/ff/eecs251b/sky130/sky130_cds/sky130_release_0.0.4/models/parasitics/sky130_fd_pr__model__parasitic__diode_ps2dn.model.spice
Reading file:  /home/ff/eecs251b/sky130/sky130_cds/sky130_release_0.0.4/cells/pfet_g5v0d16v0/sky130_fd_pr__pfet_g5v0d16v0__parasitic__diode_pw2dn.model.spice
Reading file:  /home/ff/eecs251b/sky130/sky130_cds/sky130_release_0.0.4/cells/pnp_05v5/sky130_fd_pr__pnp_05v5_W0p68L0p68.model.spice
Reading file:  /home/ff/eecs251b/sky130/sky130_cds/sky130_release_0.0.4/cells/pfet_g5v0d16v0/sky130_fd_pr__pfet_g5v0d16v0.pm3.spice
Reading file:  /home/ff/eecs251b/sky130/sky130_cds/sky130_release_0.0.4/cells/pfet_g5v0d16v0/sky130_fd_pr__pfet_g5v0d16v0__subcircuit.pm3.spice
Reading file:  /home/ff/eecs251b/sky130/sky130_cds/sky130_release_0.0.4/cells/cap_var_lvt/sky130_fd_pr__cap_var_lvt.model.spice
Reading file:  /home/ff/eecs251b/sky130/sky130_cds/sky130_release_0.0.4/cells/cap_vpp_08p6x07p8_l1m1m2_noshield/sky130_fd_pr__cap_vpp_08p6x07p8_l1m1m2_noshield_o1.model.spice
Reading file:  /home/ff/eecs251b/sky130/sky130_cds/sky130_release_0.0.4/models/capacitors/sky130_fd_pr__model__cap_mim.model.spice
Reading file:  /home/ff/eecs251b/sky130/sky130_cds/sky130_release_0.0.4/cells/cap_mim_m3/sky130_fd_pr__cap_mim_m3_1.model.spice
Reading file:  /home/ff/eecs251b/sky130/sky130_cds/sky130_release_0.0.4/cells/cap_mim_m3/sky130_fd_pr__cap_mim_m3_2.model.spice
Reading file:  /home/ff/eecs251b/sky130/sky130_cds/sky130_release_0.0.4/models/capacitors/sky130_fd_pr__model__cap_vpp_only_mos.model.spice
Reading file:  /home/ff/eecs251b/sky130/sky130_cds/sky130_release_0.0.4/cells/cap_vpp_04p4x04p6_m1m2_noshield/sky130_fd_pr__cap_vpp_04p4x04p6_m1m2_noshield_o1nhv.model.spice
Reading file:  /home/ff/eecs251b/sky130/sky130_cds/sky130_release_0.0.4/cells/cap_vpp_04p4x04p6_m1m2_noshield/sky130_fd_pr__cap_vpp_04p4x04p6_m1m2_noshield_o1phv.model.spice
Reading file:  /home/ff/eecs251b/sky130/sky130_cds/sky130_release_0.0.4/models/sonos_p/begin_of_life/mm.spice
Reading file:  /home/ff/eecs251b/sky130/sky130_cds/sky130_release_0.0.4/models/sonos_e/begin_of_life/mm.spice
Reading file:  /home/ff/eecs251b/sky130/sky130_cds/sky130_release_0.0.4/models/head.spice
Reading file:  /home/ff/eecs251b/sky130/sky130_cds/sky130_release_0.0.4/cells/special_nfet_pass/sky130_fd_pr__special_nfet_pass.pm3.spice
Reading file:  /home/ff/eecs251b/sky130/sky130_cds/sky130_release_0.0.4/cells/special_nfet_latch/sky130_fd_pr__special_nfet_latch.pm3.spice
Reading file:  /home/ff/eecs251b/sky130/sky130_cds/sky130_release_0.0.4/cells/special_pfet_pass/sky130_fd_pr__special_pfet_pass.pm3.spice
Reading file:  /home/ff/eecs251b/sky130/sky130_cds/sky130_release_0.0.4/cells/special_nfet_pass_flash/sky130_fd_pr__special_nfet_pass_flash.pm3.spice
Reading file:  /home/ff/eecs251b/sky130/sky130_cds/sky130_release_0.0.4/models/capacitors/sky130_fd_pr__model__cap_vpp_only_pq.model.spice
Reading file:  /home/ff/eecs251b/sky130/sky130_cds/sky130_release_0.0.4/cells/cap_vpp_08p6x07p8_m1m2m3_shieldl1/sky130_fd_pr__cap_vpp_08p6x07p8_m1m2m3_shieldl1.model.spice
Reading file:  /home/ff/eecs251b/sky130/sky130_cds/sky130_release_0.0.4/cells/cap_vpp_04p4x04p6_m1m2m3_shieldl1/sky130_fd_pr__cap_vpp_04p4x04p6_m1m2m3_shieldl1.model.spice
Reading file:  /home/ff/eecs251b/sky130/sky130_cds/sky130_release_0.0.4/cells/cap_vpp_11p5x11p7_m1m2m3_shieldl1/sky130_fd_pr__cap_vpp_11p5x11p7_m1m2m3_shieldl1.model.spice
Reading file:  /home/ff/eecs251b/sky130/sky130_cds/sky130_release_0.0.4/cells/cap_vpp_11p5x11p7_l1m1m2m3_shieldm4/sky130_fd_pr__cap_vpp_11p5x11p7_l1m1m2m3_shieldm4.model.spice
Reading file:  /home/ff/eecs251b/sky130/sky130_cds/sky130_release_0.0.4/cells/cap_vpp_11p5x11p7_l1m1m2m3_shieldpom4/sky130_fd_pr__cap_vpp_11p5x11p7_l1m1m2m3_shieldpom4.model.spice
Reading file:  /home/ff/eecs251b/sky130/sky130_cds/sky130_release_0.0.4/cells/cap_vpp_06p8x06p1_l1m1m2m3_shieldpom4/sky130_fd_pr__cap_vpp_06p8x06p1_l1m1m2m3_shieldpom4.model.spice
Reading file:  /home/ff/eecs251b/sky130/sky130_cds/sky130_release_0.0.4/cells/cap_vpp_06p8x06p1_m1m2m3_shieldl1m4/sky130_fd_pr__cap_vpp_06p8x06p1_m1m2m3_shieldl1m4.model.spice
Reading file:  /home/ff/eecs251b/sky130/sky130_cds/sky130_release_0.0.4/models/capacitors/sky130_fd_pr__model__cap_vpp_only_p.model.spice
Reading file:  /home/ff/eecs251b/sky130/sky130_cds/sky130_release_0.0.4/cells/cap_vpp_11p5x11p7_l1m1m2m3m4_shieldm5/sky130_fd_pr__cap_vpp_11p5x11p7_l1m1m2m3m4_shieldm5.model.spice
Reading file:  /home/ff/eecs251b/sky130/sky130_cds/sky130_release_0.0.4/cells/cap_vpp_11p5x11p7_l1m1m2m3m4_shieldpom5/sky130_fd_pr__cap_vpp_11p5x11p7_l1m1m2m3m4_shieldpom5.model.spice
Reading file:  /home/ff/eecs251b/sky130/sky130_cds/sky130_release_0.0.4/cells/cap_vpp_11p5x11p7_m1m2m3m4_shieldl1m5/sky130_fd_pr__cap_vpp_11p5x11p7_m1m2m3m4_shieldl1m5.model.spice
Reading file:  /home/ff/eecs251b/sky130/sky130_cds/sky130_release_0.0.4/cells/cap_vpp_11p5x11p7_m1m4_noshield/sky130_fd_pr__cap_vpp_11p5x11p7_m1m4_noshield.model.spice
Reading file:  /home/ff/eecs251b/sky130/sky130_cds/sky130_release_0.0.4/cells/cap_vpp_11p5x11p7_m1m2m3m4_shieldm5/sky130_fd_pr__cap_vpp_11p5x11p7_m1m2m3m4_shieldm5.model.spice
Reading file:  /home/ff/eecs251b/sky130/sky130_cds/sky130_release_0.0.4/cells/cap_vpp_08p6x07p8_m1m2m3_shieldl1m5_floatm4/sky130_fd_pr__cap_vpp_08p6x07p8_m1m2m3_shieldl1m5_floatm4.model.spice
Reading file:  /home/ff/eecs251b/sky130/sky130_cds/sky130_release_0.0.4/cells/cap_vpp_04p4x04p6_m1m2m3_shieldl1m5_floatm4/sky130_fd_pr__cap_vpp_04p4x04p6_m1m2m3_shieldl1m5_floatm4.model.spice
Reading file:  /home/ff/eecs251b/sky130/sky130_cds/sky130_release_0.0.4/cells/cap_vpp_11p5x11p7_m1m2m3_shieldl1m5_floatm4/sky130_fd_pr__cap_vpp_11p5x11p7_m1m2m3_shieldl1m5_floatm4.model.spice
Reading file:  /home/ff/eecs251b/sky130/sky130_cds/sky130_release_0.0.4/cells/cap_vpp_11p3x11p8_l1m1m2m3m4_shieldm5/sky130_fd_pr__cap_vpp_11p3x11p8_l1m1m2m3m4_shieldm5_nhv.model.spice
Reading file:  /home/ff/eecs251b/sky130/sky130_cds/sky130_release_0.0.4/cells/cap_vpp_11p3x11p8_l1m1m2m3m4_shieldm5/sky130_fd_pr__cap_vpp_11p3x11p8_l1m1m2m3m4_shieldm5_nhv__base.model.spice
Reading file:  /home/ff/eecs251b/sky130/sky130_cds/sky130_release_0.0.4/cells/cap_vpp_11p5x11p7_l1m1m2m3m4_shieldpom5/sky130_fd_pr__cap_vpp_11p5x11p7_l1m1m2m3m4_shieldpom5_x.model.spice
Reading file:  /home/ff/eecs251b/sky130/sky130_cds/sky130_release_0.0.4/cells/cap_vpp_02p9x06p1_m1m2m3m4_shieldl1/sky130_fd_pr__cap_vpp_02p9x06p1_m1m2m3m4_shieldl1_fingercap2.model.spice
Reading file:  /home/ff/eecs251b/sky130/sky130_cds/sky130_release_0.0.4/cells/cap_vpp_02p7x11p1_m1m2m3m4_shieldl1/sky130_fd_pr__cap_vpp_02p7x11p1_m1m2m3m4_shieldl1_fingercap.model.spice
Reading file:  /home/ff/eecs251b/sky130/sky130_cds/sky130_release_0.0.4/cells/cap_vpp_02p7x21p1_m1m2m3m4_shieldl1/sky130_fd_pr__cap_vpp_02p7x21p1_m1m2m3m4_shieldl1_fingercap.model.spice
Reading file:  /home/ff/eecs251b/sky130/sky130_cds/sky130_release_0.0.4/cells/cap_vpp_02p7x41p1_m1m2m3m4_shieldl1/sky130_fd_pr__cap_vpp_02p7x41p1_m1m2m3m4_shieldl1_fingercap.model.spice
Reading file:  /home/ff/eecs251b/sky130/sky130_cds/sky130_release_0.0.4/cells/cap_vpp_02p7x06p1_m1m2m3m4_shieldl1/sky130_fd_pr__cap_vpp_02p7x06p1_m1m2m3m4_shieldl1_fingercap.model.spice
Reading file:  /home/ff/eecs251b/sky130/sky130_cds/sky130_release_0.0.4/cells/cap_vpp_11p3x11p3_m1m2m3m4_shieldl1/sky130_fd_pr__cap_vpp_11p3x11p3_m1m2m3m4_shieldl1_wafflecap.model.spice
Reading file:  /home/ff/eecs251b/sky130/sky130_cds/sky130_release_0.0.4/cells/cap_vpp_05p9x05p9_m1m2m3m4_shieldl1/sky130_fd_pr__cap_vpp_05p9x05p9_m1m2m3m4_shieldl1_wafflecap.model.spice
Reading file:  /home/ff/eecs251b/sky130/sky130_cds/sky130_release_0.0.4/cells/cap_vpp_44p7x23p1_pol1m1m2m3m4m5_noshield/sky130_fd_pr__cap_vpp_44p7x23p1_pol1m1m2m3m4m5_noshield.model.spice
Reading file:  /home/ff/eecs251b/sky130/sky130_cds/sky130_release_0.0.4/models/sky130_fd_pr__model__linear.model.spice
Reading file:  /home/ff/eecs251b/sky130/sky130_cds/sky130_release_0.0.4/models/parasitics/sky130_fd_pr__model__parasitic__res_po.model.spice
Reading file:  /home/ff/eecs251b/sky130/sky130_cds/sky130_release_0.0.4/cells/res_xhigh_po/sky130_fd_pr__res_xhigh_po.model.spice
Reading file:  /home/ff/eecs251b/sky130/sky130_cds/sky130_release_0.0.4/cells/res_high_po/sky130_fd_pr__res_high_po.model.spice
Reading file:  /home/ff/eecs251b/sky130/sky130_cds/sky130_release_0.0.4/cells/res_xhigh_po/sky130_fd_pr__res_xhigh_po_0p35.model.spice
Reading file:  /home/ff/eecs251b/sky130/sky130_cds/sky130_release_0.0.4/cells/res_xhigh_po/sky130_fd_pr__res_xhigh_po_0p69.model.spice
Reading file:  /home/ff/eecs251b/sky130/sky130_cds/sky130_release_0.0.4/cells/res_xhigh_po/sky130_fd_pr__res_xhigh_po_1p41.model.spice
Reading file:  /home/ff/eecs251b/sky130/sky130_cds/sky130_release_0.0.4/cells/res_xhigh_po/sky130_fd_pr__res_xhigh_po_2p85.model.spice
Reading file:  /home/ff/eecs251b/sky130/sky130_cds/sky130_release_0.0.4/cells/res_xhigh_po/sky130_fd_pr__res_xhigh_po_5p73.model.spice
Reading file:  /home/ff/eecs251b/sky130/sky130_cds/sky130_release_0.0.4/cells/res_xhigh_po/sky130_fd_pr__res_xhigh_po__base.model.spice
Reading file:  /home/ff/eecs251b/sky130/sky130_cds/sky130_release_0.0.4/cells/res_high_po/sky130_fd_pr__res_high_po_0p35.model.spice
Reading file:  /home/ff/eecs251b/sky130/sky130_cds/sky130_release_0.0.4/cells/res_high_po/sky130_fd_pr__res_high_po_0p69.model.spice
Reading file:  /home/ff/eecs251b/sky130/sky130_cds/sky130_release_0.0.4/cells/res_high_po/sky130_fd_pr__res_high_po_1p41.model.spice
Reading file:  /home/ff/eecs251b/sky130/sky130_cds/sky130_release_0.0.4/cells/res_high_po/sky130_fd_pr__res_high_po_2p85.model.spice
Reading file:  /home/ff/eecs251b/sky130/sky130_cds/sky130_release_0.0.4/cells/res_high_po/sky130_fd_pr__res_high_po_5p73.model.spice
Reading file:  /home/ff/eecs251b/sky130/sky130_cds/sky130_release_0.0.4/cells/rf_nfet_g5v0d10v5/sky130_fd_pr__rf_nfet_g5v0d10v5.pm3.spice
Reading file:  /home/ff/eecs251b/sky130/sky130_cds/sky130_release_0.0.4/cells/rf_nfet_01v8_lvt/sky130_fd_pr__rf_nfet_01v8_lvt.pm3.spice
Reading file:  /home/ff/eecs251b/sky130/sky130_cds/sky130_release_0.0.4/cells/rf_nfet_01v8/sky130_fd_pr__rf_nfet_01v8.pm3.spice
Reading file:  /home/ff/eecs251b/sky130/sky130_cds/sky130_release_0.0.4/cells/rf_pfet_01v8/sky130_fd_pr__rf_pfet_01v8.pm3.spice
Reading file:  /home/ff/eecs251b/sky130/sky130_cds/sky130_release_0.0.4/cells/rf_pfet_01v8_mvt/sky130_fd_pr__rf_pfet_01v8_mvt.pm3.spice
Reading file:  /home/ff/eecs251b/sky130/sky130_cds/sky130_release_0.0.4/models/corners/tt/rf.spice
Reading file:  /home/ff/eecs251b/sky130/sky130_cds/sky130_release_0.0.4/cells/rf_nfet_01v8/sky130_fd_pr__rf_nfet_01v8_b__tt.corner.spice
Reading file:  /home/ff/eecs251b/sky130/sky130_cds/sky130_release_0.0.4/cells/rf_nfet_01v8/sky130_fd_pr__rf_nfet_01v8_b.pm3.spice
Reading file:  /home/ff/eecs251b/sky130/sky130_cds/sky130_release_0.0.4/cells/rf_nfet_01v8_lvt/sky130_fd_pr__rf_nfet_01v8_lvt_b__tt.corner.spice
Reading file:  /home/ff/eecs251b/sky130/sky130_cds/sky130_release_0.0.4/cells/rf_nfet_01v8_lvt/sky130_fd_pr__rf_nfet_01v8_lvt_b.pm3.spice
Reading file:  /home/ff/eecs251b/sky130/sky130_cds/sky130_release_0.0.4/cells/rf_nfet_g5v0d10v5/sky130_fd_pr__rf_nfet_g5v0d10v5_b__tt.corner.spice
Reading file:  /home/ff/eecs251b/sky130/sky130_cds/sky130_release_0.0.4/cells/rf_nfet_g5v0d10v5/sky130_fd_pr__rf_nfet_g5v0d10v5_b.pm3.spice
Reading file:  /home/ff/eecs251b/sky130/sky130_cds/sky130_release_0.0.4/cells/rf_pfet_01v8/sky130_fd_pr__rf_pfet_01v8_b__tt.corner.spice
Reading file:  /home/ff/eecs251b/sky130/sky130_cds/sky130_release_0.0.4/cells/rf_pfet_01v8/sky130_fd_pr__rf_pfet_01v8_b.pm3.spice
Reading file:  /home/ff/eecs251b/sky130/sky130_cds/sky130_release_0.0.4/cells/rf_nfet_01v8/sky130_fd_pr__rf_nfet_01v8__mismatch.corner.spice
Reading file:  /home/ff/eecs251b/sky130/sky130_cds/sky130_release_0.0.4/cells/rf_nfet_01v8_lvt/sky130_fd_pr__rf_nfet_01v8_lvt__mismatch.corner.spice
Reading file:  /home/ff/eecs251b/sky130/sky130_cds/sky130_release_0.0.4/cells/rf_nfet_g5v0d10v5/sky130_fd_pr__rf_nfet_g5v0d10v5__mismatch.corner.spice
Reading file:  /home/ff/eecs251b/sky130/sky130_cds/sky130_release_0.0.4/cells/rf_pfet_01v8/sky130_fd_pr__rf_pfet_01v8__mismatch.corner.spice
Reading file:  /home/ff/eecs251b/sky130/sky130_cds/sky130_release_0.0.4/cells/rf_pfet_01v8_mvt/sky130_fd_pr__rf_pfet_01v8_mvt__tt_discrete.corner.spice
Reading file:  /home/ff/eecs251b/sky130/sky130_cds/sky130_release_0.0.4/cells/pfet_01v8_mvt/sky130_fd_pr__pfet_01v8_mvt.pm3.spice
Reading file:  /home/ff/eecs251b/sky130/sky130_cds/sky130_release_0.0.4/cells/rf_pfet_01v8_mvt/sky130_fd_pr__rf_pfet_01v8_mvt__mismatch.corner.spice
Reading file:  /home/ff/eecs251b/sky130/sky130_cds/sky130_release_0.0.4/cells/pfet_20v0/sky130_fd_pr__pfet_20v0__tt_discrete.corner.spice
Reading file:  /home/ff/eecs251b/sky130/sky130_cds/sky130_release_0.0.4/cells/pfet_20v0/sky130_fd_pr__pfet_20v0__subcircuit.pm3.spice
Reading file:  /home/ff/eecs251b/sky130/sky130_cds/sky130_release_0.0.4/cells/pfet_20v0/sky130_fd_pr__pfet_20v0__parasitic__diode_pw2dn.model.spice
Reading file:  /home/ff/eecs251b/sky130/sky130_cds/sky130_release_0.0.4/cells/nfet_20v0/sky130_fd_pr__nfet_20v0__tt_discrete.corner.spice
Reading file:  /home/ff/eecs251b/sky130/sky130_cds/sky130_release_0.0.4/cells/nfet_20v0/sky130_fd_pr__nfet_20v0__subcircuit.pm3.spice
Reading file:  /home/ff/eecs251b/sky130/sky130_cds/sky130_release_0.0.4/models/parasitics/sky130_fd_pr__model__parasitic__diode_pw2dn__extended_drain.model.spice
Reading file:  /home/ff/eecs251b/sky130/sky130_cds/sky130_release_0.0.4/cells/diode_pw2nd_05v5/sky130_fd_pr__diode_pw2nd_05v5__extended_drain.model.spice
Reading file:  /home/ff/eecs251b/sky130/sky130_cds/sky130_release_0.0.4/cells/nfet_20v0_iso/sky130_fd_pr__nfet_20v0_iso__subcircuit.pm3.spice
Reading file:  /home/ff/eecs251b/sky130/sky130_cds/sky130_release_0.0.4/models/parasitics/sky130_fd_pr__model__parasitic__diode_ps2dn__extended_drain.model.spice
Reading file:  /home/ff/eecs251b/sky130/sky130_cds/sky130_release_0.0.4/cells/nfet_20v0_reverse_iso/sky130_fd_pr__nfet_20v0_reverse_iso__subcircuit.pm3.spice
Reading file:  /home/ff/eecs251b/sky130/sky130_cds/sky130_release_0.0.4/cells/nfet_20v0_zvt/sky130_fd_pr__nfet_20v0_zvt__tt_discrete.corner.spice
Reading file:  /home/ff/eecs251b/sky130/sky130_cds/sky130_release_0.0.4/cells/nfet_20v0_zvt/sky130_fd_pr__nfet_20v0_zvt__subcircuit.pm3.spice
Reading file:  /home/ff/eecs251b/sky130/sky130_cds/sky130_release_0.0.4/cells/nfet_20v0_zvt/sky130_fd_pr__nfet_20v0_zvt__parasitic__diode_ps2dn__extended_drain.model.spice
Reading file:  /home/ff/eecs251b/sky130/sky130_cds/sky130_release_0.0.4/cells/nfet_20v0_nvt/sky130_fd_pr__nfet_20v0_nvt__tt_discrete.corner.spice
Reading file:  /home/ff/eecs251b/sky130/sky130_cds/sky130_release_0.0.4/cells/nfet_20v0_nvt/sky130_fd_pr__nfet_20v0_nvt__subcircuit.pm3.spice
Reading file:  /home/ff/eecs251b/sky130/sky130_cds/sky130_release_0.0.4/cells/nfet_20v0_nvt/sky130_fd_pr__nfet_20v0_nvt__parasitic__diode_ps2dn.model.spice
Reading file:  /home/ff/eecs251b/sky130/sky130_cds/sky130_scl_9T_0.0.5/cdl/sky130_scl_9T.cdl
Reading file:  /scratch/aryap/chipyard/vlsi/build/bfg_clb-scl/par-rundir/clb.lvs.sp
Time for NDB Parsing: CPU = 516.934 ms, elapsed = 1.06775 s.
Time accumulated: CPU = 590.082 ms, elapsed = 1.06776 s.
Peak resident memory used = 124 Mbytes.

Time for Elaboration: CPU = 201.534 ms, elapsed = 203.993 ms.
Time accumulated: CPU = 791.763 ms, elapsed = 1.2719 s.
Peak resident memory used = 141 Mbytes.


Time for EDB Visiting: CPU = 10.384 ms, elapsed = 10.443 ms.
Time accumulated: CPU = 802.283 ms, elapsed = 1.28248 s.
Peak resident memory used = 145 Mbytes.


Notice from spectre during topology check.
    No DC path from node `xtop.xlut.FE_OFNVPWR' to ground, Gmin installed to provide path.


Global user options:

Scoped user options:

Circuit inventory:
              nodes 452
              bsim4 836   
          capacitor 2     
            vsource 10    

Analysis and control statement inventory:
               tran 1     

Output statements:
             .probe 0     
           .measure 0     
               save 0     

Time for parsing: CPU = 20.86 ms, elapsed = 22.3422 ms.
Time accumulated: CPU = 823.217 ms, elapsed = 1.3049 s.
Peak resident memory used = 150 Mbytes.

~~~~~~~~~~~~~~~~~~~~~~
Pre-Simulation Summary
~~~~~~~~~~~~~~~~~~~~~~
~~~~~~~~~~~~~~~~~~~~~~

*****************************************************
Transient Analysis `timeSweep': time = (0 s -> 80 ns)
*****************************************************

Notice from spectre during IC analysis, during transient analysis `timeSweep'.
    GminDC = 1 pS is large enough to noticeably affect the DC solution.
        dV(xtop.xlut.Xq_control_reg.net461) = -27.162 mV
        Use the `gmin_check' option to eliminate or expand this report.
    Bad pivoting is found during DC analysis. Option dc_pivot_check=yes is recommended for possible improvement of convergence.

DC simulation time: CPU = 77.861 ms, elapsed = 78.208 ms.

Notice from spectre during transient analysis `timeSweep'.
    No outputs were found. Loosening output filter criterion to `allpub'.


Opening the PSFXL file testbench.raw/timeSweep.tran.tran ...
Important parameter values:
    start = 0 s
    outputstart = 0 s
    stop = 80 ns
    step = 1 ps
    maxstep = 1.6 ns
    ic = all
    useprevic = no
    skipdc = no
    reltol = 1e-03
    abstol(V) = 1 uV
    abstol(I) = 1 pA
    temp = 27 C
    tnom = 27 C
    tempeffects = all
    errpreset = moderate
    method = traponly
    lteratio = 3.5
    relref = sigglobal
    cmin = 0 F
    gmin = 1 pS


Output and IC/nodeset summary:
                 save   4       (current)
                 save   452     (voltage)

..

Notice from spectre at time = 1.21021 ns during transient analysis `timeSweep'.
    Found trapezoidal ringing on node xtop.xlut.XFE_OFC1_scan_out_0.Mmn1.msky130_fd_pr__nfet_01v8:int_b.
Notice from spectre at time = 1.21872 ns during transient analysis `timeSweep'.
    Found trapezoidal ringing on node xtop.xlut.XFE_OFC1_scan_out_0.Mmn1.msky130_fd_pr__nfet_01v8:int_b.
Notice from spectre at time = 1.23017 ns during transient analysis `timeSweep'.
    Found trapezoidal ringing on node xtop.xlut.XFE_OFC1_scan_out_0.Mmn1.msky130_fd_pr__nfet_01v8:int_b.
Notice from spectre at time = 1.24599 ns during transient analysis `timeSweep'.
    Found trapezoidal ringing on node xtop.xlut.XFE_OFC1_scan_out_0.Mmn1.msky130_fd_pr__nfet_01v8:int_b.

...........

Notice from spectre at time = 5.5 ns during transient analysis `timeSweep'.
    Found trapezoidal ringing on node xtop.xlut.Xmux_control_reg.Mmn40.msky130_fd_pr__nfet_01v8:int_b.
        Further occurrences of this notice will be suppressed.

...............9...............8...............7...............6...............5...............4...............3...............2...............1...............0
Number of accepted tran steps =             6237

Notice from spectre during transient analysis `timeSweep'.
    Trapezoidal ringing is detected during tran analysis.
        Please use method=trap for better results and performance.


Maximum value achieved for any signal of each quantity: 
V: V(xtop.xlut.Xg495__6260.n4) = 2.158 V
I: I(xtop.vpower:p) = 4.595 mA
If your circuit contains signals of the same quantity that are vastly different in size (such as high voltage circuitry combined with low voltage control circuitry), you should consider specifying global option `bin_relref=yes'.

~~~~~~~~~~~~~~~~~~~~~~~~~~~~~~~~~
Post-Transient Simulation Summary
~~~~~~~~~~~~~~~~~~~~~~~~~~~~~~~~~
   -   To further speed up simulation, consider
          add ++aps on command line
~~~~~~~~~~~~~~~~~~~~~~~~~~~~~~~~~


During simulation, the CPU load for active processors is :
         0 (10.2 %)      1 (5.8 %)       2 (6.5 %)       3 (7.4 %)
         4 (7.3 %)       5 (7.0 %)       6 (30.2 %)      7 (8.1 %)
         8 (34.2 %)      9 (25.4 %)     10 (4.3 %)      11 (15.2 %)
        12 (10.6 %)     13 (3.5 %)      14 (3.3 %)      15 (2.8 %)
        16 (3.7 %)      17 (3.2 %)      18 (3.2 %)      19 (3.1 %)
        20 (2.3 %)      21 (1.6 %)      22 (2.3 %)      23 (1.4 %)
        24 (2.1 %)      27 (1.0 %)      29 (73.1 %)     30 (4.7 %)
        32 (1.9 %)      33 (1.6 %)      34 (1.1 %)      35 (1.6 %)
        36 (20.0 %)     37 (3.0 %)      38 (10.8 %)     39 (4.2 %)
        40 (5.7 %)      41 (7.8 %)      42 (2.9 %)      43 (28.5 %)
        44 (1.5 %)      48 (4.9 %)      49 (3.7 %)      50 (2.7 %)
        51 (2.9 %)      52 (3.5 %)      53 (2.5 %)      54 (4.9 %)
        55 (9.1 %)      56 (1.4 %)      57 (18.3 %)     58 (3.2 %)
        60 (19.1 %)     61 (2.0 %)      62 (2.6 %)      63 (1.6 %)
        64 (4.0 %)      65 (3.5 %)      66 (1.2 %)      67 (1.6 %)
        68 (2.4 %)      69 (1.9 %)      70 (4.3 %)      71 (2.8 %)
        72 (1.6 %)      77 (24.2 %)     78 (50.3 %)     79 (1.2 %)
        80 (1.4 %)      82 (3.3 %)      83 (1.6 %)      84 (4.4 %)
        85 (2.8 %)      86 (6.9 %)      88 (4.5 %)      89 (3.2 %)
        90 (69.9 %)     93 (2.3 %)      94 (2.0 %)      95 (2.7 %)
        Total: 669.9%
Initial condition solution time: CPU = 77.897 ms, elapsed = 78.244 ms.
Intrinsic tran analysis time:    CPU = 21.2463 s, elapsed = 21.3478 s.
Total time required for tran analysis `timeSweep': CPU = 21.34 s, elapsed = 21.4419 s.
Time accumulated: CPU = 22.2359 s, elapsed = 22.8207 s.
Peak resident memory used = 211 Mbytes.


Notice from spectre.
    33 notices suppressed.


Aggregate audit (6:29:25 PM, Wed Apr 15, 2026):
Time used: CPU = 22.3 s, elapsed = 22.9 s, util. = 97.4%.
Time spent in licensing: elapsed = 47.6 ms.
Peak memory used = 211 Mbytes.
Simulation started at: 6:29:02 PM, Wed Apr 15, 2026, ended at: 6:29:25 PM, Wed Apr 15, 2026, with elapsed time (wall clock): 22.9 s.
spectre completes with 0 errors, 0 warnings, and 12 notices.
