
Spectre (R) Circuit Simulator
Version 19.1.0.455.isr11 64bit -- 10 Sep 2020
Copyright (C) 1989-2020 Cadence Design Systems, Inc. All rights reserved worldwide. Cadence and Spectre are registered trademarks of Cadence Design Systems, Inc. All others are the property of their respective holders.

Includes RSA BSAFE(R) Cryptographic or Security Protocol Software from RSA Security, Inc.

User: aryap   Host: eda-1.EECS.Berkeley.EDU   HostID: 2080902A   PID: 2333212
Memory  available: 324.8048 GB  physical: 810.7755 GB
Linux   : Red Hat Enterprise Linux release 8.10 (Ootpa)
CPU Type: AMD EPYC 9454 48-Core Processor
        Socket: Processors [Frequency] (Hyperthreaded Processor)
        0:       0 [1748.1] (),  1 [1500.0] (),  2 [1499.5] (),  3 [1500.0] (),  4 [1500.0] ()
                 5 [1500.0] (),  6 [1500.0] (),  7 [1500.0] (),  8 [1499.7] (),  9 [1500.0] ()
                10 [1500.0] (), 11 [1500.0] (), 12 [1500.0] (), 13 [1500.0] (), 14 [1500.0] ()
                15 [1500.0] (), 16 [1500.0] (), 17 [1521.9] (), 18 [1500.0] (), 19 [1500.0] ()
                20 [1500.0] (), 21 [1500.0] (), 22 [1500.0] (), 23 [1500.0] (), 24 [1500.0] ()
                25 [1500.0] (), 26 [1500.0] (), 27 [1500.0] (), 28 [1500.0] (), 29 [1500.0] ()
                30 [1500.0] (), 31 [1500.0] (), 32 [1500.0] (), 33 [1500.0] (), 34 [1500.0] ()
                35 [1500.0] (), 36 [1500.0] (), 37 [1774.0] (), 38 [1500.0] (), 39 [3799.9] ()
                40 [1500.0] (), 41 [2100.0] (), 42 [1500.0] (), 43 [1500.0] (), 44 [1500.0] ()
                45 [1500.0] (), 46 [1500.0] (), 47 [1500.0] (), 48 [1500.0] (), 49 [1500.0] ()
                50 [1500.0] (), 51 [1500.0] (), 52 [1500.0] (), 53 [1500.0] (), 54 [1500.0] ()
                55 [1500.0] (), 56 [1500.0] (), 57 [1500.0] (), 58 [1500.0] (), 59 [1500.0] ()
                60 [3799.8] (), 61 [1500.0] (), 62 [1500.0] (), 63 [1500.0] (), 64 [1500.0] ()
                65 [1500.0] (), 66 [1500.0] (), 67 [1500.0] (), 68 [1500.0] (), 69 [1500.0] ()
                70 [1500.0] (), 71 [1500.0] (), 72 [1500.0] (), 73 [1500.0] (), 74 [1500.0] ()
                75 [1500.0] (), 76 [1500.0] (), 77 [1500.0] (), 78 [1500.0] (), 79 [1500.0] ()
                80 [1500.0] (), 81 [1500.0] (), 82 [1511.5] (), 83 [1500.0] (), 84 [2100.0] ()
                85 [1500.0] (), 86 [1500.0] (), 87 [1500.0] (), 88 [1500.0] (), 89 [1500.0] ()
                90 [1500.0] (), 91 [1500.0] (), 92 [1500.0] (), 93 [1500.0] (), 94 [1500.0] ()
                95 [1500.0] ()
        
System load averages (1min, 5min, 15min) : 7.5 %, 8.3 %, 8.7 %
Hyperthreading is enabled


Simulating `lut_test.sp' on eda-1.EECS.Berkeley.EDU at 5:37:52 PM, Thur Apr 9, 2026 (process id: 2333212).
Current working directory: /scratch/aryap/chipyard/vlsi/manual
Command line:
    /share/instsww/cadence/LIBERATE/tools.lnx86/bin/spectre -64  \
        lut_test.sp

Loading /share/instsww/cadence/LIBERATE/tools.lnx86/cmi/lib/64bit/5.0/libinfineon_sh.so ...
Loading /share/instsww/cadence/LIBERATE/tools.lnx86/cmi/lib/64bit/5.0/libphilips_o_sh.so ...
Loading /share/instsww/cadence/LIBERATE/tools.lnx86/cmi/lib/64bit/5.0/libphilips_sh.so ...
Loading /share/instsww/cadence/LIBERATE/tools.lnx86/cmi/lib/64bit/5.0/libsparam_sh.so ...
Loading /share/instsww/cadence/LIBERATE/tools.lnx86/cmi/lib/64bit/5.0/libstmodels_sh.so ...
Reading file:  /scratch/aryap/chipyard/vlsi/manual/lut_test.sp
Reading link:  /share/instsww/cadence/LIBERATE
Reading file:  /share/instsww/cadence/LIBERATE.19.12.294/tools.lnx86/spectre/etc/configs/spectre.cfg
Reading file:  /scratch/aryap/chipyard/vlsi/manual/testbench.sp
Reading file:  /home/ff/eecs251b/sky130/sky130_cds/sky130_release_0.0.4/models/sky130.lib.spice
Reading file:  /home/ff/eecs251b/sky130/sky130_cds/sky130_release_0.0.4/cells/nfet_01v8/sky130_fd_pr__nfet_01v8__tt.corner.spice
Reading file:  /home/ff/eecs251b/sky130/sky130_cds/sky130_release_0.0.4/cells/nfet_01v8/sky130_fd_pr__nfet_01v8__tt.pm3.spice
Reading file:  /home/ff/eecs251b/sky130/sky130_cds/sky130_release_0.0.4/cells/nfet_01v8_lvt/sky130_fd_pr__nfet_01v8_lvt__tt.corner.spice
Reading file:  /home/ff/eecs251b/sky130/sky130_cds/sky130_release_0.0.4/cells/nfet_01v8_lvt/sky130_fd_pr__nfet_01v8_lvt__tt.pm3.spice
Reading file:  /home/ff/eecs251b/sky130/sky130_cds/sky130_release_0.0.4/cells/pfet_01v8/sky130_fd_pr__pfet_01v8__tt.corner.spice
Reading file:  /home/ff/eecs251b/sky130/sky130_cds/sky130_release_0.0.4/cells/pfet_01v8/sky130_fd_pr__pfet_01v8__tt.pm3.spice
Reading file:  /home/ff/eecs251b/sky130/sky130_cds/sky130_release_0.0.4/cells/nfet_03v3_nvt/sky130_fd_pr__nfet_03v3_nvt__tt.corner.spice
Reading file:  /home/ff/eecs251b/sky130/sky130_cds/sky130_release_0.0.4/cells/nfet_03v3_nvt/sky130_fd_pr__nfet_03v3_nvt.pm3.spice
Reading file:  /home/ff/eecs251b/sky130/sky130_cds/sky130_release_0.0.4/cells/nfet_05v0_nvt/sky130_fd_pr__nfet_05v0_nvt__tt.corner.spice
Reading file:  /home/ff/eecs251b/sky130/sky130_cds/sky130_release_0.0.4/cells/nfet_05v0_nvt/sky130_fd_pr__nfet_05v0_nvt.pm3.spice
Reading file:  /home/ff/eecs251b/sky130/sky130_cds/sky130_release_0.0.4/cells/esd_nfet_01v8/sky130_fd_pr__esd_nfet_01v8__tt.corner.spice
Reading file:  /home/ff/eecs251b/sky130/sky130_cds/sky130_release_0.0.4/cells/esd_nfet_01v8/sky130_fd_pr__esd_nfet_01v8.pm3.spice
Reading file:  /home/ff/eecs251b/sky130/sky130_cds/sky130_release_0.0.4/cells/pfet_01v8_lvt/sky130_fd_pr__pfet_01v8_lvt__tt.corner.spice
Reading file:  /home/ff/eecs251b/sky130/sky130_cds/sky130_release_0.0.4/cells/pfet_01v8_lvt/sky130_fd_pr__pfet_01v8_lvt__tt.pm3.spice
Reading file:  /home/ff/eecs251b/sky130/sky130_cds/sky130_release_0.0.4/cells/pfet_01v8_hvt/sky130_fd_pr__pfet_01v8_hvt__tt.corner.spice
Reading file:  /home/ff/eecs251b/sky130/sky130_cds/sky130_release_0.0.4/cells/pfet_01v8_hvt/sky130_fd_pr__pfet_01v8_hvt__tt.pm3.spice
Reading file:  /home/ff/eecs251b/sky130/sky130_cds/sky130_release_0.0.4/cells/esd_pfet_g5v0d10v5/sky130_fd_pr__esd_pfet_g5v0d10v5__tt.corner.spice
Reading file:  /home/ff/eecs251b/sky130/sky130_cds/sky130_release_0.0.4/cells/esd_pfet_g5v0d10v5/sky130_fd_pr__esd_pfet_g5v0d10v5.pm3.spice
Reading file:  /home/ff/eecs251b/sky130/sky130_cds/sky130_release_0.0.4/cells/pfet_g5v0d10v5/sky130_fd_pr__pfet_g5v0d10v5__tt.corner.spice
Reading file:  /home/ff/eecs251b/sky130/sky130_cds/sky130_release_0.0.4/cells/pfet_g5v0d10v5/sky130_fd_pr__pfet_g5v0d10v5__tt.pm3.spice
Reading file:  /home/ff/eecs251b/sky130/sky130_cds/sky130_release_0.0.4/cells/pfet_g5v0d16v0/sky130_fd_pr__pfet_g5v0d16v0__tt.corner.spice
Reading file:  /home/ff/eecs251b/sky130/sky130_cds/sky130_release_0.0.4/cells/nfet_g5v0d10v5/sky130_fd_pr__nfet_g5v0d10v5__tt.corner.spice
Reading file:  /home/ff/eecs251b/sky130/sky130_cds/sky130_release_0.0.4/cells/nfet_g5v0d10v5/sky130_fd_pr__nfet_g5v0d10v5__tt.pm3.spice
Reading file:  /home/ff/eecs251b/sky130/sky130_cds/sky130_release_0.0.4/cells/nfet_g5v0d16v0/sky130_fd_pr__nfet_g5v0d16v0__tt_discrete.corner.spice
Reading file:  /home/ff/eecs251b/sky130/sky130_cds/sky130_release_0.0.4/cells/nfet_g5v0d16v0/sky130_fd_pr__nfet_g5v0d16v0__subcircuit.pm3.spice
Reading file:  /home/ff/eecs251b/sky130/sky130_cds/sky130_release_0.0.4/cells/nfet_g5v0d16v0/sky130_fd_pr__nfet_g5v0d16v0.pm3.spice
Reading file:  /home/ff/eecs251b/sky130/sky130_cds/sky130_release_0.0.4/cells/esd_nfet_g5v0d10v5/sky130_fd_pr__esd_nfet_g5v0d10v5__tt.corner.spice
Reading file:  /home/ff/eecs251b/sky130/sky130_cds/sky130_release_0.0.4/cells/esd_nfet_g5v0d10v5/sky130_fd_pr__esd_nfet_g5v0d10v5.pm3.spice
Reading file:  /home/ff/eecs251b/sky130/sky130_cds/sky130_release_0.0.4/models/corners/tt/nonfet.spice
Reading file:  /home/ff/eecs251b/sky130/sky130_cds/sky130_release_0.0.4/cells/nfet_01v8/sky130_fd_pr__nfet_01v8__mismatch.corner.spice
Reading file:  /home/ff/eecs251b/sky130/sky130_cds/sky130_release_0.0.4/cells/pfet_01v8/sky130_fd_pr__pfet_01v8__mismatch.corner.spice
Reading file:  /home/ff/eecs251b/sky130/sky130_cds/sky130_release_0.0.4/cells/nfet_01v8_lvt/sky130_fd_pr__nfet_01v8_lvt__mismatch.corner.spice
Reading file:  /home/ff/eecs251b/sky130/sky130_cds/sky130_release_0.0.4/cells/pfet_01v8_lvt/sky130_fd_pr__pfet_01v8_lvt__mismatch.corner.spice
Reading file:  /home/ff/eecs251b/sky130/sky130_cds/sky130_release_0.0.4/cells/pfet_01v8_hvt/sky130_fd_pr__pfet_01v8_hvt__mismatch.corner.spice
Reading file:  /home/ff/eecs251b/sky130/sky130_cds/sky130_release_0.0.4/cells/nfet_g5v0d10v5/sky130_fd_pr__nfet_g5v0d10v5__mismatch.corner.spice
Reading file:  /home/ff/eecs251b/sky130/sky130_cds/sky130_release_0.0.4/cells/pfet_g5v0d10v5/sky130_fd_pr__pfet_g5v0d10v5__mismatch.corner.spice
Reading file:  /home/ff/eecs251b/sky130/sky130_cds/sky130_release_0.0.4/cells/nfet_05v0_nvt/sky130_fd_pr__nfet_05v0_nvt__mismatch.corner.spice
Reading file:  /home/ff/eecs251b/sky130/sky130_cds/sky130_release_0.0.4/cells/nfet_03v3_nvt/sky130_fd_pr__nfet_03v3_nvt__mismatch.corner.spice
Reading file:  /home/ff/eecs251b/sky130/sky130_cds/sky130_release_0.0.4/models/r+c/res_typical__cap_typical.spice
Reading file:  /home/ff/eecs251b/sky130/sky130_cds/sky130_release_0.0.4/models/sky130_fd_pr__model__r+c.model.spice
Reading file:  /home/ff/eecs251b/sky130/sky130_cds/sky130_release_0.0.4/models/r+c.mrp1monte.spice
Reading file:  /home/ff/eecs251b/sky130/sky130_cds/sky130_release_0.0.4/cells/res_generic_nd/sky130_fd_pr__res_generic_nd.model.spice
Reading file:  /home/ff/eecs251b/sky130/sky130_cds/sky130_release_0.0.4/cells/res_generic_pd/sky130_fd_pr__res_generic_pd.model.spice
Reading file:  /home/ff/eecs251b/sky130/sky130_cds/sky130_release_0.0.4/models/parameters/typical.spice
Reading file:  /home/ff/eecs251b/sky130/sky130_cds/sky130_release_0.0.4/models/r+c/res_typical__cap_typical__lin.spice
Reading file:  /home/ff/eecs251b/sky130/sky130_cds/sky130_release_0.0.4/models/capacitors/sky130_fd_pr__model__cap_vpp.model.spice
Reading file:  /home/ff/eecs251b/sky130/sky130_cds/sky130_release_0.0.4/cells/cap_vpp_08p6x07p8_l1m1m2_noshield/sky130_fd_pr__cap_vpp_08p6x07p8_l1m1m2_noshield.model.spice
Reading file:  /home/ff/eecs251b/sky130/sky130_cds/sky130_release_0.0.4/cells/cap_vpp_04p4x04p6_l1m1m2_noshield/sky130_fd_pr__cap_vpp_04p4x04p6_l1m1m2_noshield.model.spice
Reading file:  /home/ff/eecs251b/sky130/sky130_cds/sky130_release_0.0.4/cells/cap_vpp_11p5x11p7_l1m1m2_noshield/sky130_fd_pr__cap_vpp_11p5x11p7_l1m1m2_noshield.model.spice
Reading file:  /home/ff/eecs251b/sky130/sky130_cds/sky130_release_0.0.4/cells/cap_vpp_01p8x01p8_m1m2_noshield/sky130_fd_pr__cap_vpp_01p8x01p8_m1m2_noshield.model.spice
Reading file:  /home/ff/eecs251b/sky130/sky130_cds/sky130_release_0.0.4/cells/cap_vpp_08p6x07p8_m1m2_shieldl1/sky130_fd_pr__cap_vpp_08p6x07p8_m1m2_shieldl1.model.spice
Reading file:  /home/ff/eecs251b/sky130/sky130_cds/sky130_release_0.0.4/cells/cap_vpp_04p4x04p6_m1m2_shieldl1/sky130_fd_pr__cap_vpp_04p4x04p6_m1m2_shieldl1.model.spice
Reading file:  /home/ff/eecs251b/sky130/sky130_cds/sky130_release_0.0.4/cells/cap_vpp_11p5x11p7_m1m2_shieldl1/sky130_fd_pr__cap_vpp_11p5x11p7_m1m2_shieldl1.model.spice
Reading file:  /home/ff/eecs251b/sky130/sky130_cds/sky130_release_0.0.4/cells/cap_vpp_08p6x07p8_l1m1m2_shieldpo_floatm3/sky130_fd_pr__cap_vpp_08p6x07p8_l1m1m2_shieldpo_floatm3.model.spice
Reading file:  /home/ff/eecs251b/sky130/sky130_cds/sky130_release_0.0.4/cells/cap_vpp_04p4x04p6_l1m1m2_shieldpo_floatm3/sky130_fd_pr__cap_vpp_04p4x04p6_l1m1m2_shieldpo_floatm3.model.spice
Reading file:  /home/ff/eecs251b/sky130/sky130_cds/sky130_release_0.0.4/cells/cap_vpp_11p5x11p7_l1m1m2_shieldpom3/sky130_fd_pr__cap_vpp_11p5x11p7_l1m1m2_shieldpom3.model.spice
Reading file:  /home/ff/eecs251b/sky130/sky130_cds/sky130_release_0.0.4/cells/cap_vpp_03p9x03p9_m1m2_shieldl1_floatm3/sky130_fd_pr__cap_vpp_03p9x03p9_m1m2_shieldl1_floatm3.model.spice
Reading file:  /home/ff/eecs251b/sky130/sky130_cds/sky130_release_0.0.4/cells/cap_vpp_04p4x04p6_l1m1m2_noshield/sky130_fd_pr__cap_vpp_04p4x04p6_l1m1m2_noshield_o1.model.spice
Reading file:  /home/ff/eecs251b/sky130/sky130_cds/sky130_release_0.0.4/cells/cap_vpp_08p6x07p8_m1m2_noshield/sky130_fd_pr__cap_vpp_08p6x07p8_m1m2_noshield.model.spice
Reading file:  /home/ff/eecs251b/sky130/sky130_cds/sky130_release_0.0.4/cells/cap_vpp_04p4x04p6_m1m2_noshield/sky130_fd_pr__cap_vpp_04p4x04p6_m1m2_noshield_o2.model.spice
Reading file:  /home/ff/eecs251b/sky130/sky130_cds/sky130_release_0.0.4/cells/cap_vpp_02p4x04p6_m1m2_noshield/sky130_fd_pr__cap_vpp_02p4x04p6_m1m2_noshield.model.spice
Reading file:  /home/ff/eecs251b/sky130/sky130_cds/sky130_release_0.0.4/cells/cap_vpp_04p4x04p6_m1m2_noshield/sky130_fd_pr__cap_vpp_04p4x04p6_m1m2_noshield.model.spice
Reading file:  /home/ff/eecs251b/sky130/sky130_cds/sky130_release_0.0.4/cells/cap_vpp_11p5x11p7_m1m2_noshield/sky130_fd_pr__cap_vpp_11p5x11p7_m1m2_noshield.model.spice
Reading file:  /home/ff/eecs251b/sky130/sky130_cds/sky130_release_0.0.4/cells/npn_05v5/sky130_fd_pr__npn_05v5__t.corner.spice
Reading file:  /home/ff/eecs251b/sky130/sky130_cds/sky130_release_0.0.4/cells/npn_05v5/sky130_fd_pr__npn_05v5_W1p00L1p00.model.spice
Reading file:  /home/ff/eecs251b/sky130/sky130_cds/sky130_release_0.0.4/cells/npn_05v5/sky130_fd_pr__npn_05v5_W1p00L2p00.model.spice
Reading file:  /home/ff/eecs251b/sky130/sky130_cds/sky130_release_0.0.4/cells/npn_11v0/sky130_fd_pr__npn_11v0_W1p00L1p00.model.spice
Reading file:  /home/ff/eecs251b/sky130/sky130_cds/sky130_release_0.0.4/cells/pnp_05v5/sky130_fd_pr__pnp_05v5_W3p40L3p40.model.spice
Reading file:  /home/ff/eecs251b/sky130/sky130_cds/sky130_release_0.0.4/models/corners/tt/specialized_cells.spice
Reading file:  /home/ff/eecs251b/sky130/sky130_cds/sky130_release_0.0.4/cells/special_nfet_latch/sky130_fd_pr__special_nfet_latch__mismatch.corner.spice
Reading file:  /home/ff/eecs251b/sky130/sky130_cds/sky130_release_0.0.4/cells/special_nfet_pass/sky130_fd_pr__special_nfet_pass__mismatch.corner.spice
Reading file:  /home/ff/eecs251b/sky130/sky130_cds/sky130_release_0.0.4/cells/special_nfet_pass_flash/sky130_fd_pr__special_nfet_pass_flash__mismatch.corner.spice
Reading file:  /home/ff/eecs251b/sky130/sky130_cds/sky130_release_0.0.4/cells/special_pfet_pass/sky130_fd_pr__special_pfet_pass__mismatch.corner.spice
Reading file:  /home/ff/eecs251b/sky130/sky130_cds/sky130_release_0.0.4/cells/special_nfet_pass_lvt/sky130_fd_pr__special_nfet_pass_lvt__tt.corner.spice
Reading file:  /home/ff/eecs251b/sky130/sky130_cds/sky130_release_0.0.4/cells/special_nfet_pass_lvt/sky130_fd_pr__special_nfet_pass_lvt.pm3.spice
Reading file:  /home/ff/eecs251b/sky130/sky130_cds/sky130_release_0.0.4/models/all.spice
Reading file:  /home/ff/eecs251b/sky130/sky130_cds/sky130_release_0.0.4/models/parameters/lod.spice
Reading file:  /home/ff/eecs251b/sky130/sky130_cds/sky130_release_0.0.4/models/parasitics/sky130_fd_pr__model__parasitic__diode_ps2nw.model.spice
Reading file:  /home/ff/eecs251b/sky130/sky130_cds/sky130_release_0.0.4/cells/diode_pw2nd_05v5/sky130_fd_pr__diode_pw2nd_05v5.model.spice
Reading file:  /home/ff/eecs251b/sky130/sky130_cds/sky130_release_0.0.4/cells/diode_pd2nw_05v5/sky130_fd_pr__diode_pd2nw_05v5.model.spice
Reading file:  /home/ff/eecs251b/sky130/sky130_cds/sky130_release_0.0.4/cells/diode_pd2nw_05v5_hvt/sky130_fd_pr__diode_pd2nw_05v5_hvt.model.spice
Reading file:  /home/ff/eecs251b/sky130/sky130_cds/sky130_release_0.0.4/cells/diode_pw2nd_11v0/sky130_fd_pr__diode_pw2nd_11v0.model.spice
Reading file:  /home/ff/eecs251b/sky130/sky130_cds/sky130_release_0.0.4/cells/diode_pd2nw_11v0/sky130_fd_pr__diode_pd2nw_11v0.model.spice
Reading file:  /home/ff/eecs251b/sky130/sky130_cds/sky130_release_0.0.4/cells/diode_pw2nd_05v5_nvt/sky130_fd_pr__diode_pw2nd_05v5_nvt.model.spice
Reading file:  /home/ff/eecs251b/sky130/sky130_cds/sky130_release_0.0.4/cells/diode_pw2nd_05v5_lvt/sky130_fd_pr__diode_pw2nd_05v5_lvt.model.spice
Reading file:  /home/ff/eecs251b/sky130/sky130_cds/sky130_release_0.0.4/cells/diode_pd2nw_05v5_lvt/sky130_fd_pr__diode_pd2nw_05v5_lvt.model.spice
Reading file:  /home/ff/eecs251b/sky130/sky130_cds/sky130_release_0.0.4/models/parasitics/sky130_fd_pr__model__parasitic__diode_pw2dn.model.spice
Reading file:  /home/ff/eecs251b/sky130/sky130_cds/sky130_release_0.0.4/models/parasitics/sky130_fd_pr__model__parasitic__diode_ps2dn.model.spice
Reading file:  /home/ff/eecs251b/sky130/sky130_cds/sky130_release_0.0.4/cells/pfet_g5v0d16v0/sky130_fd_pr__pfet_g5v0d16v0__parasitic__diode_pw2dn.model.spice
Reading file:  /home/ff/eecs251b/sky130/sky130_cds/sky130_release_0.0.4/cells/pnp_05v5/sky130_fd_pr__pnp_05v5_W0p68L0p68.model.spice
Reading file:  /home/ff/eecs251b/sky130/sky130_cds/sky130_release_0.0.4/cells/pfet_g5v0d16v0/sky130_fd_pr__pfet_g5v0d16v0.pm3.spice
Reading file:  /home/ff/eecs251b/sky130/sky130_cds/sky130_release_0.0.4/cells/pfet_g5v0d16v0/sky130_fd_pr__pfet_g5v0d16v0__subcircuit.pm3.spice
Reading file:  /home/ff/eecs251b/sky130/sky130_cds/sky130_release_0.0.4/cells/cap_var_lvt/sky130_fd_pr__cap_var_lvt.model.spice
Reading file:  /home/ff/eecs251b/sky130/sky130_cds/sky130_release_0.0.4/cells/cap_vpp_08p6x07p8_l1m1m2_noshield/sky130_fd_pr__cap_vpp_08p6x07p8_l1m1m2_noshield_o1.model.spice
Reading file:  /home/ff/eecs251b/sky130/sky130_cds/sky130_release_0.0.4/models/capacitors/sky130_fd_pr__model__cap_mim.model.spice
Reading file:  /home/ff/eecs251b/sky130/sky130_cds/sky130_release_0.0.4/cells/cap_mim_m3/sky130_fd_pr__cap_mim_m3_1.model.spice
Reading file:  /home/ff/eecs251b/sky130/sky130_cds/sky130_release_0.0.4/cells/cap_mim_m3/sky130_fd_pr__cap_mim_m3_2.model.spice
Reading file:  /home/ff/eecs251b/sky130/sky130_cds/sky130_release_0.0.4/models/capacitors/sky130_fd_pr__model__cap_vpp_only_mos.model.spice
Reading file:  /home/ff/eecs251b/sky130/sky130_cds/sky130_release_0.0.4/cells/cap_vpp_04p4x04p6_m1m2_noshield/sky130_fd_pr__cap_vpp_04p4x04p6_m1m2_noshield_o1nhv.model.spice
Reading file:  /home/ff/eecs251b/sky130/sky130_cds/sky130_release_0.0.4/cells/cap_vpp_04p4x04p6_m1m2_noshield/sky130_fd_pr__cap_vpp_04p4x04p6_m1m2_noshield_o1phv.model.spice
Reading file:  /home/ff/eecs251b/sky130/sky130_cds/sky130_release_0.0.4/models/sonos_p/begin_of_life/mm.spice
Reading file:  /home/ff/eecs251b/sky130/sky130_cds/sky130_release_0.0.4/models/sonos_e/begin_of_life/mm.spice
Reading file:  /home/ff/eecs251b/sky130/sky130_cds/sky130_release_0.0.4/models/head.spice
Reading file:  /home/ff/eecs251b/sky130/sky130_cds/sky130_release_0.0.4/cells/special_nfet_pass/sky130_fd_pr__special_nfet_pass.pm3.spice
Reading file:  /home/ff/eecs251b/sky130/sky130_cds/sky130_release_0.0.4/cells/special_nfet_latch/sky130_fd_pr__special_nfet_latch.pm3.spice
Reading file:  /home/ff/eecs251b/sky130/sky130_cds/sky130_release_0.0.4/cells/special_pfet_pass/sky130_fd_pr__special_pfet_pass.pm3.spice
Reading file:  /home/ff/eecs251b/sky130/sky130_cds/sky130_release_0.0.4/cells/special_nfet_pass_flash/sky130_fd_pr__special_nfet_pass_flash.pm3.spice
Reading file:  /home/ff/eecs251b/sky130/sky130_cds/sky130_release_0.0.4/models/capacitors/sky130_fd_pr__model__cap_vpp_only_pq.model.spice
Reading file:  /home/ff/eecs251b/sky130/sky130_cds/sky130_release_0.0.4/cells/cap_vpp_08p6x07p8_m1m2m3_shieldl1/sky130_fd_pr__cap_vpp_08p6x07p8_m1m2m3_shieldl1.model.spice
Reading file:  /home/ff/eecs251b/sky130/sky130_cds/sky130_release_0.0.4/cells/cap_vpp_04p4x04p6_m1m2m3_shieldl1/sky130_fd_pr__cap_vpp_04p4x04p6_m1m2m3_shieldl1.model.spice
Reading file:  /home/ff/eecs251b/sky130/sky130_cds/sky130_release_0.0.4/cells/cap_vpp_11p5x11p7_m1m2m3_shieldl1/sky130_fd_pr__cap_vpp_11p5x11p7_m1m2m3_shieldl1.model.spice
Reading file:  /home/ff/eecs251b/sky130/sky130_cds/sky130_release_0.0.4/cells/cap_vpp_11p5x11p7_l1m1m2m3_shieldm4/sky130_fd_pr__cap_vpp_11p5x11p7_l1m1m2m3_shieldm4.model.spice
Reading file:  /home/ff/eecs251b/sky130/sky130_cds/sky130_release_0.0.4/cells/cap_vpp_11p5x11p7_l1m1m2m3_shieldpom4/sky130_fd_pr__cap_vpp_11p5x11p7_l1m1m2m3_shieldpom4.model.spice
Reading file:  /home/ff/eecs251b/sky130/sky130_cds/sky130_release_0.0.4/cells/cap_vpp_06p8x06p1_l1m1m2m3_shieldpom4/sky130_fd_pr__cap_vpp_06p8x06p1_l1m1m2m3_shieldpom4.model.spice
Reading file:  /home/ff/eecs251b/sky130/sky130_cds/sky130_release_0.0.4/cells/cap_vpp_06p8x06p1_m1m2m3_shieldl1m4/sky130_fd_pr__cap_vpp_06p8x06p1_m1m2m3_shieldl1m4.model.spice
Reading file:  /home/ff/eecs251b/sky130/sky130_cds/sky130_release_0.0.4/models/capacitors/sky130_fd_pr__model__cap_vpp_only_p.model.spice
Reading file:  /home/ff/eecs251b/sky130/sky130_cds/sky130_release_0.0.4/cells/cap_vpp_11p5x11p7_l1m1m2m3m4_shieldm5/sky130_fd_pr__cap_vpp_11p5x11p7_l1m1m2m3m4_shieldm5.model.spice
Reading file:  /home/ff/eecs251b/sky130/sky130_cds/sky130_release_0.0.4/cells/cap_vpp_11p5x11p7_l1m1m2m3m4_shieldpom5/sky130_fd_pr__cap_vpp_11p5x11p7_l1m1m2m3m4_shieldpom5.model.spice
Reading file:  /home/ff/eecs251b/sky130/sky130_cds/sky130_release_0.0.4/cells/cap_vpp_11p5x11p7_m1m2m3m4_shieldl1m5/sky130_fd_pr__cap_vpp_11p5x11p7_m1m2m3m4_shieldl1m5.model.spice
Reading file:  /home/ff/eecs251b/sky130/sky130_cds/sky130_release_0.0.4/cells/cap_vpp_11p5x11p7_m1m4_noshield/sky130_fd_pr__cap_vpp_11p5x11p7_m1m4_noshield.model.spice
Reading file:  /home/ff/eecs251b/sky130/sky130_cds/sky130_release_0.0.4/cells/cap_vpp_11p5x11p7_m1m2m3m4_shieldm5/sky130_fd_pr__cap_vpp_11p5x11p7_m1m2m3m4_shieldm5.model.spice
Reading file:  /home/ff/eecs251b/sky130/sky130_cds/sky130_release_0.0.4/cells/cap_vpp_08p6x07p8_m1m2m3_shieldl1m5_floatm4/sky130_fd_pr__cap_vpp_08p6x07p8_m1m2m3_shieldl1m5_floatm4.model.spice
Reading file:  /home/ff/eecs251b/sky130/sky130_cds/sky130_release_0.0.4/cells/cap_vpp_04p4x04p6_m1m2m3_shieldl1m5_floatm4/sky130_fd_pr__cap_vpp_04p4x04p6_m1m2m3_shieldl1m5_floatm4.model.spice
Reading file:  /home/ff/eecs251b/sky130/sky130_cds/sky130_release_0.0.4/cells/cap_vpp_11p5x11p7_m1m2m3_shieldl1m5_floatm4/sky130_fd_pr__cap_vpp_11p5x11p7_m1m2m3_shieldl1m5_floatm4.model.spice
Reading file:  /home/ff/eecs251b/sky130/sky130_cds/sky130_release_0.0.4/cells/cap_vpp_11p3x11p8_l1m1m2m3m4_shieldm5/sky130_fd_pr__cap_vpp_11p3x11p8_l1m1m2m3m4_shieldm5_nhv.model.spice
Reading file:  /home/ff/eecs251b/sky130/sky130_cds/sky130_release_0.0.4/cells/cap_vpp_11p3x11p8_l1m1m2m3m4_shieldm5/sky130_fd_pr__cap_vpp_11p3x11p8_l1m1m2m3m4_shieldm5_nhv__base.model.spice
Reading file:  /home/ff/eecs251b/sky130/sky130_cds/sky130_release_0.0.4/cells/cap_vpp_11p5x11p7_l1m1m2m3m4_shieldpom5/sky130_fd_pr__cap_vpp_11p5x11p7_l1m1m2m3m4_shieldpom5_x.model.spice
Reading file:  /home/ff/eecs251b/sky130/sky130_cds/sky130_release_0.0.4/cells/cap_vpp_02p9x06p1_m1m2m3m4_shieldl1/sky130_fd_pr__cap_vpp_02p9x06p1_m1m2m3m4_shieldl1_fingercap2.model.spice
Reading file:  /home/ff/eecs251b/sky130/sky130_cds/sky130_release_0.0.4/cells/cap_vpp_02p7x11p1_m1m2m3m4_shieldl1/sky130_fd_pr__cap_vpp_02p7x11p1_m1m2m3m4_shieldl1_fingercap.model.spice
Reading file:  /home/ff/eecs251b/sky130/sky130_cds/sky130_release_0.0.4/cells/cap_vpp_02p7x21p1_m1m2m3m4_shieldl1/sky130_fd_pr__cap_vpp_02p7x21p1_m1m2m3m4_shieldl1_fingercap.model.spice
Reading file:  /home/ff/eecs251b/sky130/sky130_cds/sky130_release_0.0.4/cells/cap_vpp_02p7x41p1_m1m2m3m4_shieldl1/sky130_fd_pr__cap_vpp_02p7x41p1_m1m2m3m4_shieldl1_fingercap.model.spice
Reading file:  /home/ff/eecs251b/sky130/sky130_cds/sky130_release_0.0.4/cells/cap_vpp_02p7x06p1_m1m2m3m4_shieldl1/sky130_fd_pr__cap_vpp_02p7x06p1_m1m2m3m4_shieldl1_fingercap.model.spice
Reading file:  /home/ff/eecs251b/sky130/sky130_cds/sky130_release_0.0.4/cells/cap_vpp_11p3x11p3_m1m2m3m4_shieldl1/sky130_fd_pr__cap_vpp_11p3x11p3_m1m2m3m4_shieldl1_wafflecap.model.spice
Reading file:  /home/ff/eecs251b/sky130/sky130_cds/sky130_release_0.0.4/cells/cap_vpp_05p9x05p9_m1m2m3m4_shieldl1/sky130_fd_pr__cap_vpp_05p9x05p9_m1m2m3m4_shieldl1_wafflecap.model.spice
Reading file:  /home/ff/eecs251b/sky130/sky130_cds/sky130_release_0.0.4/cells/cap_vpp_44p7x23p1_pol1m1m2m3m4m5_noshield/sky130_fd_pr__cap_vpp_44p7x23p1_pol1m1m2m3m4m5_noshield.model.spice
Reading file:  /home/ff/eecs251b/sky130/sky130_cds/sky130_release_0.0.4/models/sky130_fd_pr__model__linear.model.spice
Reading file:  /home/ff/eecs251b/sky130/sky130_cds/sky130_release_0.0.4/models/parasitics/sky130_fd_pr__model__parasitic__res_po.model.spice
Reading file:  /home/ff/eecs251b/sky130/sky130_cds/sky130_release_0.0.4/cells/res_xhigh_po/sky130_fd_pr__res_xhigh_po.model.spice
Reading file:  /home/ff/eecs251b/sky130/sky130_cds/sky130_release_0.0.4/cells/res_high_po/sky130_fd_pr__res_high_po.model.spice
Reading file:  /home/ff/eecs251b/sky130/sky130_cds/sky130_release_0.0.4/cells/res_xhigh_po/sky130_fd_pr__res_xhigh_po_0p35.model.spice
Reading file:  /home/ff/eecs251b/sky130/sky130_cds/sky130_release_0.0.4/cells/res_xhigh_po/sky130_fd_pr__res_xhigh_po_0p69.model.spice
Reading file:  /home/ff/eecs251b/sky130/sky130_cds/sky130_release_0.0.4/cells/res_xhigh_po/sky130_fd_pr__res_xhigh_po_1p41.model.spice
Reading file:  /home/ff/eecs251b/sky130/sky130_cds/sky130_release_0.0.4/cells/res_xhigh_po/sky130_fd_pr__res_xhigh_po_2p85.model.spice
Reading file:  /home/ff/eecs251b/sky130/sky130_cds/sky130_release_0.0.4/cells/res_xhigh_po/sky130_fd_pr__res_xhigh_po_5p73.model.spice
Reading file:  /home/ff/eecs251b/sky130/sky130_cds/sky130_release_0.0.4/cells/res_xhigh_po/sky130_fd_pr__res_xhigh_po__base.model.spice
Reading file:  /home/ff/eecs251b/sky130/sky130_cds/sky130_release_0.0.4/cells/res_high_po/sky130_fd_pr__res_high_po_0p35.model.spice
Reading file:  /home/ff/eecs251b/sky130/sky130_cds/sky130_release_0.0.4/cells/res_high_po/sky130_fd_pr__res_high_po_0p69.model.spice
Reading file:  /home/ff/eecs251b/sky130/sky130_cds/sky130_release_0.0.4/cells/res_high_po/sky130_fd_pr__res_high_po_1p41.model.spice
Reading file:  /home/ff/eecs251b/sky130/sky130_cds/sky130_release_0.0.4/cells/res_high_po/sky130_fd_pr__res_high_po_2p85.model.spice
Reading file:  /home/ff/eecs251b/sky130/sky130_cds/sky130_release_0.0.4/cells/res_high_po/sky130_fd_pr__res_high_po_5p73.model.spice
Reading file:  /home/ff/eecs251b/sky130/sky130_cds/sky130_release_0.0.4/cells/rf_nfet_g5v0d10v5/sky130_fd_pr__rf_nfet_g5v0d10v5.pm3.spice
Reading file:  /home/ff/eecs251b/sky130/sky130_cds/sky130_release_0.0.4/cells/rf_nfet_01v8_lvt/sky130_fd_pr__rf_nfet_01v8_lvt.pm3.spice
Reading file:  /home/ff/eecs251b/sky130/sky130_cds/sky130_release_0.0.4/cells/rf_nfet_01v8/sky130_fd_pr__rf_nfet_01v8.pm3.spice
Reading file:  /home/ff/eecs251b/sky130/sky130_cds/sky130_release_0.0.4/cells/rf_pfet_01v8/sky130_fd_pr__rf_pfet_01v8.pm3.spice
Reading file:  /home/ff/eecs251b/sky130/sky130_cds/sky130_release_0.0.4/cells/rf_pfet_01v8_mvt/sky130_fd_pr__rf_pfet_01v8_mvt.pm3.spice
Reading file:  /home/ff/eecs251b/sky130/sky130_cds/sky130_release_0.0.4/models/corners/tt/rf.spice
Reading file:  /home/ff/eecs251b/sky130/sky130_cds/sky130_release_0.0.4/cells/rf_nfet_01v8/sky130_fd_pr__rf_nfet_01v8_b__tt.corner.spice
Reading file:  /home/ff/eecs251b/sky130/sky130_cds/sky130_release_0.0.4/cells/rf_nfet_01v8/sky130_fd_pr__rf_nfet_01v8_b.pm3.spice
Reading file:  /home/ff/eecs251b/sky130/sky130_cds/sky130_release_0.0.4/cells/rf_nfet_01v8_lvt/sky130_fd_pr__rf_nfet_01v8_lvt_b__tt.corner.spice
Reading file:  /home/ff/eecs251b/sky130/sky130_cds/sky130_release_0.0.4/cells/rf_nfet_01v8_lvt/sky130_fd_pr__rf_nfet_01v8_lvt_b.pm3.spice
Reading file:  /home/ff/eecs251b/sky130/sky130_cds/sky130_release_0.0.4/cells/rf_nfet_g5v0d10v5/sky130_fd_pr__rf_nfet_g5v0d10v5_b__tt.corner.spice
Reading file:  /home/ff/eecs251b/sky130/sky130_cds/sky130_release_0.0.4/cells/rf_nfet_g5v0d10v5/sky130_fd_pr__rf_nfet_g5v0d10v5_b.pm3.spice
Reading file:  /home/ff/eecs251b/sky130/sky130_cds/sky130_release_0.0.4/cells/rf_pfet_01v8/sky130_fd_pr__rf_pfet_01v8_b__tt.corner.spice
Reading file:  /home/ff/eecs251b/sky130/sky130_cds/sky130_release_0.0.4/cells/rf_pfet_01v8/sky130_fd_pr__rf_pfet_01v8_b.pm3.spice
Reading file:  /home/ff/eecs251b/sky130/sky130_cds/sky130_release_0.0.4/cells/rf_nfet_01v8/sky130_fd_pr__rf_nfet_01v8__mismatch.corner.spice
Reading file:  /home/ff/eecs251b/sky130/sky130_cds/sky130_release_0.0.4/cells/rf_nfet_01v8_lvt/sky130_fd_pr__rf_nfet_01v8_lvt__mismatch.corner.spice
Reading file:  /home/ff/eecs251b/sky130/sky130_cds/sky130_release_0.0.4/cells/rf_nfet_g5v0d10v5/sky130_fd_pr__rf_nfet_g5v0d10v5__mismatch.corner.spice
Reading file:  /home/ff/eecs251b/sky130/sky130_cds/sky130_release_0.0.4/cells/rf_pfet_01v8/sky130_fd_pr__rf_pfet_01v8__mismatch.corner.spice
Reading file:  /home/ff/eecs251b/sky130/sky130_cds/sky130_release_0.0.4/cells/rf_pfet_01v8_mvt/sky130_fd_pr__rf_pfet_01v8_mvt__tt_discrete.corner.spice
Reading file:  /home/ff/eecs251b/sky130/sky130_cds/sky130_release_0.0.4/cells/pfet_01v8_mvt/sky130_fd_pr__pfet_01v8_mvt.pm3.spice
Reading file:  /home/ff/eecs251b/sky130/sky130_cds/sky130_release_0.0.4/cells/rf_pfet_01v8_mvt/sky130_fd_pr__rf_pfet_01v8_mvt__mismatch.corner.spice
Reading file:  /home/ff/eecs251b/sky130/sky130_cds/sky130_release_0.0.4/cells/pfet_20v0/sky130_fd_pr__pfet_20v0__tt_discrete.corner.spice
Reading file:  /home/ff/eecs251b/sky130/sky130_cds/sky130_release_0.0.4/cells/pfet_20v0/sky130_fd_pr__pfet_20v0__subcircuit.pm3.spice
Reading file:  /home/ff/eecs251b/sky130/sky130_cds/sky130_release_0.0.4/cells/pfet_20v0/sky130_fd_pr__pfet_20v0__parasitic__diode_pw2dn.model.spice
Reading file:  /home/ff/eecs251b/sky130/sky130_cds/sky130_release_0.0.4/cells/nfet_20v0/sky130_fd_pr__nfet_20v0__tt_discrete.corner.spice
Reading file:  /home/ff/eecs251b/sky130/sky130_cds/sky130_release_0.0.4/cells/nfet_20v0/sky130_fd_pr__nfet_20v0__subcircuit.pm3.spice
Reading file:  /home/ff/eecs251b/sky130/sky130_cds/sky130_release_0.0.4/models/parasitics/sky130_fd_pr__model__parasitic__diode_pw2dn__extended_drain.model.spice
Reading file:  /home/ff/eecs251b/sky130/sky130_cds/sky130_release_0.0.4/cells/diode_pw2nd_05v5/sky130_fd_pr__diode_pw2nd_05v5__extended_drain.model.spice
Reading file:  /home/ff/eecs251b/sky130/sky130_cds/sky130_release_0.0.4/cells/nfet_20v0_iso/sky130_fd_pr__nfet_20v0_iso__subcircuit.pm3.spice
Reading file:  /home/ff/eecs251b/sky130/sky130_cds/sky130_release_0.0.4/models/parasitics/sky130_fd_pr__model__parasitic__diode_ps2dn__extended_drain.model.spice
Reading file:  /home/ff/eecs251b/sky130/sky130_cds/sky130_release_0.0.4/cells/nfet_20v0_reverse_iso/sky130_fd_pr__nfet_20v0_reverse_iso__subcircuit.pm3.spice
Reading file:  /home/ff/eecs251b/sky130/sky130_cds/sky130_release_0.0.4/cells/nfet_20v0_zvt/sky130_fd_pr__nfet_20v0_zvt__tt_discrete.corner.spice
Reading file:  /home/ff/eecs251b/sky130/sky130_cds/sky130_release_0.0.4/cells/nfet_20v0_zvt/sky130_fd_pr__nfet_20v0_zvt__subcircuit.pm3.spice
Reading file:  /home/ff/eecs251b/sky130/sky130_cds/sky130_release_0.0.4/cells/nfet_20v0_zvt/sky130_fd_pr__nfet_20v0_zvt__parasitic__diode_ps2dn__extended_drain.model.spice
Reading file:  /home/ff/eecs251b/sky130/sky130_cds/sky130_release_0.0.4/cells/nfet_20v0_nvt/sky130_fd_pr__nfet_20v0_nvt__tt_discrete.corner.spice
Reading file:  /home/ff/eecs251b/sky130/sky130_cds/sky130_release_0.0.4/cells/nfet_20v0_nvt/sky130_fd_pr__nfet_20v0_nvt__subcircuit.pm3.spice
Reading file:  /home/ff/eecs251b/sky130/sky130_cds/sky130_release_0.0.4/cells/nfet_20v0_nvt/sky130_fd_pr__nfet_20v0_nvt__parasitic__diode_ps2dn.model.spice
Reading file:  /home/ff/eecs251b/sky130/sky130_cds/sky130_scl_9T_0.0.5/cdl/sky130_scl_9T.cdl
Reading file:  /scratch/aryap/chipyard/vlsi/build/bfg_clb-scl/pex-rundir/clb.post.sp
Time for NDB Parsing: CPU = 535.75 ms, elapsed = 1.14971 s.
Time accumulated: CPU = 605.304 ms, elapsed = 1.14972 s.
Peak resident memory used = 128 Mbytes.

Time for Elaboration: CPU = 228.795 ms, elapsed = 234.123 ms.
Time accumulated: CPU = 834.197 ms, elapsed = 1.38394 s.
Peak resident memory used = 148 Mbytes.

Loading /share/instsww/cadence/LIBERATE/tools.lnx86/spectre/lib/64bit/mdl/libSpectreEH_sh.so ...

Time for EDB Visiting: CPU = 153.554 ms, elapsed = 156.685 ms.
Time accumulated: CPU = 987.87 ms, elapsed = 1.54075 s.
Peak resident memory used = 183 Mbytes.


Warning from spectre during initial setup.
    WARNING (SPECTRE-294): The number of signals saved (8790) is too high and may slow down the initialization process. Remove the unnecessary signals to speed up the initialization.
    WARNING (SPECTRE-294): The number of signals saved (8790) is too high and may slow down the initialization process. Remove the unnecessary signals to speed up the initialization.
Notice from spectre during topology check.
    Only one connection to node `xtop.xlut.712'.
    No DC path from node `xtop.xlut.712' to ground, Gmin installed to provide path.


Global user options:

Scoped user options:

Circuit inventory:
              nodes 4493
              bsim4 914   
          capacitor 3716  
           resistor 4149  
            vsource 10    

Analysis and control statement inventory:
               tran 1     

Output statements:
             .probe 1     
           .measure 16    
               save 0     

Time for parsing: CPU = 71.827 ms, elapsed = 73.3471 ms.
Time accumulated: CPU = 1.05981 s, elapsed = 1.6142 s.
Peak resident memory used = 191 Mbytes.

~~~~~~~~~~~~~~~~~~~~~~
Pre-Simulation Summary
~~~~~~~~~~~~~~~~~~~~~~
~~~~~~~~~~~~~~~~~~~~~~

*****************************************************
Transient Analysis `timeSweep': time = (0 s -> 80 ns)
*****************************************************
Finding DC approximate solution failed with try_fast_op=yes, continue running with try_fast_op=no.

Notice from spectre during IC analysis, during transient analysis `timeSweep'.
    GminDC = 1 pS is large enough to noticeably affect the DC solution.
        dV(xtop.xlut.mem_reg[15]/net436) = -27.1665 mV
        Use the `gmin_check' option to eliminate or expand this report.
    Bad pivoting is found during DC analysis. Option dc_pivot_check=yes is recommended for possible improvement of convergence.

DC simulation time: CPU = 241.85 ms, elapsed = 244.177 ms.

Opening the PSFXL file lut_test.raw/timeSweep.tran.tran ...
Important parameter values:
    start = 0 s
    outputstart = 0 s
    stop = 80 ns
    step = 1 ps
    maxstep = 1.6 ns
    ic = all
    useprevic = no
    skipdc = no
    reltol = 1e-03
    abstol(V) = 1 uV
    abstol(I) = 1 pA
    temp = 27 C
    tnom = 27 C
    tempeffects = all
    errpreset = moderate
    method = traponly
    lteratio = 3.5
    relref = sigglobal
    cmin = 0 F
    gmin = 1 pS


Wildcard match summary:
              probe i(*) :               8789  
              probe v(*) :               4494  

Output and IC/nodeset summary:
                 probe  8789    (current)
                 probe  4493    (voltage)

......................9......................8......................7..............

Notice from spectre at time = 29 ns during transient analysis `timeSweep'.
    Found trapezoidal ringing on node xtop.xlut.q_reg_reg/CKbb#20.

......................9......................8......................7......................6...............

Notice from spectre at time = 37.1837 ns during transient analysis `timeSweep'.
    Found trapezoidal ringing on node xtop.xlut.q_reg_reg/CKbb#20.
Notice from spectre at time = 37.3418 ns during transient analysis `timeSweep'.
    Found trapezoidal ringing on node xtop.xlut.q_reg_reg/CKbb#20.
Notice from spectre at time = 37.5 ns during transient analysis `timeSweep'.
    Found trapezoidal ringing on node xtop.xlut.q_reg_reg/CKbb#20.

......................9......................8......................7......................6.................

Notice from spectre at time = 38.2486 ns during transient analysis `timeSweep'.
    Found trapezoidal ringing on node xtop.xlut.q_reg_reg/CKb#9.
        Further occurrences of this notice will be suppressed.

......................9......................8......................7......................6......................5......................4......................3......................2......................1......................0
Number of accepted tran steps =             7931

Notice from spectre during transient analysis `timeSweep'.
    Trapezoidal ringing is detected during tran analysis.
        Please use method=trap for better results and performance.


Maximum value achieved for any signal of each quantity: 
V: V(xtop.xlut.g524__7098/net41) = 2.129 V
I: I(xtop.vpower:p) = 2.691 mA
If your circuit contains signals of the same quantity that are vastly different in size (such as high voltage circuitry combined with low voltage control circuitry), you should consider specifying global option `bin_relref=yes'.

~~~~~~~~~~~~~~~~~~~~~~~~~~~~~~~~~
Post-Transient Simulation Summary
~~~~~~~~~~~~~~~~~~~~~~~~~~~~~~~~~
   -   To further speed up simulation, consider
          add ++aps on command line
~~~~~~~~~~~~~~~~~~~~~~~~~~~~~~~~~


During simulation, the CPU load for active processors is :
         0 (11.0 %)      1 (5.2 %)       2 (4.9 %)       3 (5.7 %)
         4 (6.0 %)       5 (5.3 %)       6 (4.1 %)       7 (4.9 %)
         8 (5.6 %)       9 (4.1 %)      10 (4.2 %)      11 (4.2 %)
        12 (3.4 %)      13 (2.8 %)      14 (34.7 %)     15 (2.9 %)
        16 (2.0 %)      17 (2.1 %)      18 (3.9 %)      19 (4.2 %)
        20 (3.7 %)      21 (4.0 %)      22 (4.1 %)      23 (4.4 %)
        24 (5.9 %)      25 (6.0 %)      26 (3.6 %)      27 (3.2 %)
        28 (3.4 %)      29 (2.6 %)      30 (3.2 %)      31 (3.7 %)
        32 (3.1 %)      33 (4.0 %)      34 (4.1 %)      35 (3.4 %)
        36 (1.4 %)      37 (34.2 %)     38 (2.1 %)      39 (53.0 %)
        40 (3.1 %)      41 (2.7 %)      43 (1.8 %)      44 (2.1 %)
        45 (52.7 %)     46 (15.0 %)     47 (1.5 %)      48 (4.5 %)
        49 (3.2 %)      50 (3.0 %)      51 (3.0 %)      52 (2.3 %)
        53 (2.6 %)      54 (3.3 %)      55 (2.6 %)      56 (2.9 %)
        57 (2.8 %)      58 (3.1 %)      59 (4.1 %)      60 (34.8 %)
        61 (1.4 %)      62 (31.4 %)     63 (1.9 %)      64 (1.9 %)
        65 (1.9 %)      66 (3.2 %)      67 (4.2 %)      68 (3.2 %)
        69 (3.1 %)      70 (2.9 %)      71 (3.3 %)      72 (2.4 %)
        73 (8.9 %)      74 (2.9 %)      75 (3.4 %)      76 (2.4 %)
        77 (2.9 %)      78 (4.9 %)      79 (4.2 %)      80 (3.5 %)
        81 (3.1 %)      82 (3.4 %)      83 (2.8 %)      84 (2.1 %)
        86 (1.3 %)      87 (5.5 %)      88 (1.4 %)      89 (1.6 %)
        91 (1.3 %)      92 (1.2 %)      93 (32.4 %)     
        Total: 579.1%
Initial condition solution time: CPU = 241.892 ms, elapsed = 244.218 ms.
Intrinsic tran analysis time:    CPU = 81.4569 s, elapsed = 81.9283 s.
Total time required for tran analysis `timeSweep': CPU = 81.8198 s (1m  21.8s), elapsed = 82.2966 s (1m  22.3s).
Time accumulated: CPU = 83.2719 s (1m  23.3s), elapsed = 84.305 s (1m  24.3s).
Peak resident memory used = 623 Mbytes.


Notice from spectre.
    32 notices suppressed.


Aggregate audit (5:39:16 PM, Thur Apr 9, 2026):
Time used: CPU = 83.3 s (1m  23.3s), elapsed = 84.3 s (1m  24.3s), util. = 98.8%.
Time spent in licensing: elapsed = 40.7 ms.
Peak memory used = 623 Mbytes.
Simulation started at: 5:37:52 PM, Thur Apr 9, 2026, ended at: 5:39:16 PM, Thur Apr 9, 2026, with elapsed time (wall clock): 84.3 s (1m  24.3s).
spectre completes with 0 errors, 2 warnings, and 12 notices.
